12166
     RDKit          2D

 20 22  0  0  1  0  0  0  0  0999 V2000
   -4.3440   -2.8394    0.0000 O   0  0  0  0  0  0  0  0  0  0  0  0
   -3.3929   -1.6795    0.0000 C   0  0  0  0  0  0  0  0  0  0  0  0
   -1.9128   -1.9232    0.0000 C   0  0  0  0  0  0  0  0  0  0  0  0
   -0.9618   -0.7632    0.0000 C   0  0  0  0  0  0  0  0  0  0  0  0
    0.5183   -1.0069    0.0000 O   0  0  0  0  0  0  0  0  0  0  0  0
    1.4694    0.1530    0.0000 C   0  0  0  0  0  0  0  0  0  0  0  0
    0.9404    1.5567    0.0000 C   0  0  0  0  0  0  0  0  0  0  0  0
   -0.5397    1.8003    0.0000 C   0  0  0  0  0  0  0  0  0  0  0  0
   -1.0687    3.2040    0.0000 O   0  0  0  0  0  0  0  0  0  0  0  0
   -1.4908    0.6404    0.0000 C   0  0  0  0  0  0  0  0  0  0  0  0
   -2.9708    0.8841    0.0000 C   0  0  0  0  0  0  0  0  0  0  0  0
   -3.4999    2.2877    0.0000 O   0  0  0  0  0  0  0  0  0  0  0  0
   -3.9219   -0.2759    0.0000 C   0  0  0  0  0  0  0  0  0  0  0  0
   -5.4020   -0.0322    0.0000 O   0  0  0  0  0  0  0  0  0  0  0  0
    2.9495   -0.0906    0.0000 C   0  0  0  0  0  0  0  0  0  0  0  0
    3.4785   -1.4943    0.0000 C   0  0  0  0  0  0  0  0  0  0  0  0
    4.9585   -1.7379    0.0000 C   0  0  0  0  0  0  0  0  0  0  0  0
    5.9096   -0.5780    0.0000 C   0  0  0  0  0  0  0  0  0  0  0  0
    5.3806    0.8256    0.0000 C   0  0  0  0  0  0  0  0  0  0  0  0
    3.9005    1.0693    0.0000 C   0  0  0  0  0  0  0  0  0  0  0  0
  1  2  1  0
  2  3  2  0
  2 13  1  0
  3  4  1  0
  4  5  1  0
  4 10  2  0
  5  6  1  0
  6  7  2  0
  6 15  1  0
  7  8  1  0
  8  9  2  0
  8 10  1  0
 10 11  1  0
 11 12  1  0
 11 13  2  0
 13 14  1  0
 15 16  2  0
 15 20  1  0
 16 17  1  0
 17 18  2  0
 18 19  1  0
 19 20  2  0
M  END
>  <s_m_entry_id>  (1) 
152

>  <s_m_entry_name>  (1) 
SIM_Broad_MProResults_ligprep.152

>  <Mol2_MolInfo_Name>  (1) 
12166

>  <Mol2_MolInfo_Type>  (1) 
SMALL

>  <Mol2_MolInfo_Charge>  (1) 
USER_CHARGES

>  <Mol2_Substructures>  (1) 
     1 UNK         1 GROUP             0       ****    0 ROOT    

>  <Name>  (1) 
12166

>  <s_m_Source_Path>  (1) 
/home/jgilaber/drug_learning/drug_learning/datasets/SARS2

>  <s_m_Source_File>  (1) 
SIM_Broad_MProResults_ligprep.sd

>  <i_m_Source_File_Index>  (1) 
152

>  <s_m_subgroup_title>  (1) 
SIM_Broad_MProResults_ligprep

>  <s_m_subgroupid>  (1) 
SIM_Broad_MProResults_ligprep

>  <b_m_subgroup_collapsed>  (1) 
0

$$$$
104
     RDKit          2D

 16 18  0  0  1  0  0  0  0  0999 V2000
    0.0570    2.4750    0.0000 O   0  0  0  0  0  0  0  0  0  0  0  0
    0.5188    1.0479    0.0000 C   0  0  0  0  0  0  0  0  0  0  0  0
   -0.3643   -0.1646    0.0000 N   0  0  0  0  0  0  0  0  0  0  0  0
    0.5160   -1.3791    0.0000 Se  0  0  0  0  0  2  0  0  0  0  0  0
    1.9431   -0.9173    0.0000 C   0  0  0  0  0  0  0  0  0  0  0  0
    3.2413   -1.6688    0.0000 C   0  0  0  0  0  0  0  0  0  0  0  0
    4.5412   -0.9203    0.0000 C   0  0  0  0  0  0  0  0  0  0  0  0
    4.5429    0.5797    0.0000 C   0  0  0  0  0  0  0  0  0  0  0  0
    3.2448    1.3312    0.0000 C   0  0  0  0  0  0  0  0  0  0  0  0
    1.9449    0.5827    0.0000 C   0  0  0  0  0  0  0  0  0  0  0  0
   -1.8643   -0.1628    0.0000 C   0  0  0  0  0  0  0  0  0  0  0  0
   -2.6128    1.1371    0.0000 C   0  0  0  0  0  0  0  0  0  0  0  0
   -4.1128    1.1388    0.0000 C   0  0  0  0  0  0  0  0  0  0  0  0
   -4.8643   -0.1593    0.0000 C   0  0  0  0  0  0  0  0  0  0  0  0
   -4.1158   -1.4592    0.0000 C   0  0  0  0  0  0  0  0  0  0  0  0
   -2.6158   -1.4610    0.0000 C   0  0  0  0  0  0  0  0  0  0  0  0
  1  2  2  0
  2  3  1  0
  2 10  1  0
  3  4  1  0
  3 11  1  0
  4  5  1  0
  5  6  1  0
  5 10  2  0
  6  7  2  0
  7  8  1  0
  8  9  2  0
  9 10  1  0
 11 12  2  0
 11 16  1  0
 12 13  1  0
 13 14  2  0
 14 15  1  0
 15 16  2  0
M  END
>  <s_m_entry_id>  (2) 
172

>  <s_m_entry_name>  (2) 
SIM_Broad_MProResults_ligprep.172

>  <Mol2_MolInfo_Name>  (2) 
104

>  <Mol2_MolInfo_Type>  (2) 
SMALL

>  <Mol2_MolInfo_Charge>  (2) 
USER_CHARGES

>  <Mol2_Substructures>  (2) 
     1 ****        1 GROUP             0       ****    0 ROOT    

>  <Name>  (2) 
104

>  <s_m_Source_Path>  (2) 
/home/jgilaber/drug_learning/drug_learning/datasets/SARS2

>  <s_m_Source_File>  (2) 
SIM_Broad_MProResults_ligprep.sd

>  <i_m_Source_File_Index>  (2) 
172

>  <s_m_subgroup_title>  (2) 
SIM_Broad_MProResults_ligprep

>  <s_m_subgroupid>  (2) 
SIM_Broad_MProResults_ligprep

>  <b_m_subgroup_collapsed>  (2) 
0

$$$$
11274
     RDKit          2D

 15 16  0  0  1  0  0  0  0  0999 V2000
   -5.5687   -0.7703    0.0000 N   0  0  0  0  0  0  0  0  0  0  0  0
   -4.0907   -0.5145    0.0000 C   0  0  0  0  0  0  0  0  0  0  0  0
   -3.0150   -1.5599    0.0000 N   0  0  0  0  0  0  0  0  0  0  0  0
   -1.6883   -0.8599    0.0000 N   0  0  0  0  0  0  0  0  0  0  0  0
   -1.9441    0.6181    0.0000 C   0  0  0  0  0  0  0  0  0  0  0  0
   -0.8987    1.6938    0.0000 S   0  0  0  0  0  0  0  0  0  0  0  0
    0.5555    1.3263    0.0000 C   0  0  0  0  0  0  0  0  0  0  0  0
    1.7077    2.2869    0.0000 N   0  0  0  0  0  0  0  0  0  0  0  0
    2.9772    1.4880    0.0000 C   0  0  0  0  0  0  0  0  0  0  0  0
    2.6097    0.0337    0.0000 C   0  0  0  0  0  0  0  0  0  0  0  0
    1.1131   -0.0662    0.0000 S   0  0  0  0  0  0  0  0  0  0  0  0
    3.5703   -1.1184    0.0000 N   0  0  0  0  0  0  0  0  0  0  0  0
    5.0483   -0.8626    0.0000 O   0  0  0  0  0  0  0  0  0  0  0  0
    3.0528   -2.5263    0.0000 O   0  0  0  0  0  0  0  0  0  0  0  0
   -3.4289    0.8316    0.0000 S   0  0  0  0  0  0  0  0  0  0  0  0
  1  2  1  0
  2  3  2  0
  2 15  1  0
  3  4  1  0
  4  5  2  0
  5  6  1  0
  5 15  1  0
  6  7  1  0
  7  8  2  0
  7 11  1  0
  8  9  1  0
  9 10  2  0
 10 11  1  0
 10 12  1  0
 12 13  2  0
 12 14  1  0
M  CHG  2  12   1  14  -1
M  END
>  <s_m_entry_id>  (3) 
112

>  <s_m_entry_name>  (3) 
SIM_Broad_MProResults_ligprep.112

>  <Mol2_MolInfo_Name>  (3) 
11274

>  <Mol2_MolInfo_Type>  (3) 
SMALL

>  <Mol2_MolInfo_Charge>  (3) 
USER_CHARGES

>  <Mol2_Substructures>  (3) 
     1 UNK         1 GROUP             0       ****    0 ROOT    

>  <Name>  (3) 
11274

>  <s_m_Source_Path>  (3) 
/home/jgilaber/drug_learning/drug_learning/datasets/SARS2

>  <s_m_Source_File>  (3) 
SIM_Broad_MProResults_ligprep.sd

>  <i_m_Source_File_Index>  (3) 
112

>  <s_m_subgroup_title>  (3) 
SIM_Broad_MProResults_ligprep

>  <s_m_subgroupid>  (3) 
SIM_Broad_MProResults_ligprep

>  <b_m_subgroup_collapsed>  (3) 
0

$$$$
11206
     RDKit          2D

 12 11  0  0  1  0  0  0  0  0999 V2000
   -3.3105    1.7616    0.0000 C   0  0  0  0  0  0  0  0  0  0  0  0
   -3.2586    0.2625    0.0000 N   0  0  0  0  0  0  0  0  0  0  0  0
   -4.5309   -0.5320    0.0000 C   0  0  0  0  0  0  0  0  0  0  0  0
   -1.9344   -0.4422    0.0000 C   0  0  0  0  0  0  0  0  0  0  0  0
   -1.8826   -1.9413    0.0000 S   0  0  0  0  0  0  0  0  0  0  0  0
   -0.6621    0.3523    0.0000 S   0  0  0  0  0  0  0  0  0  0  0  0
    0.6621   -0.3523    0.0000 S   0  0  0  0  0  0  0  0  0  0  0  0
    1.9344    0.4422    0.0000 C   0  0  0  0  0  0  0  0  0  0  0  0
    1.8826    1.9413    0.0000 S   0  0  0  0  0  0  0  0  0  0  0  0
    3.2586   -0.2625    0.0000 N   0  0  0  0  0  0  0  0  0  0  0  0
    4.5309    0.5320    0.0000 C   0  0  0  0  0  0  0  0  0  0  0  0
    3.3105   -1.7616    0.0000 C   0  0  0  0  0  0  0  0  0  0  0  0
  1  2  1  0
  2  3  1  0
  2  4  1  0
  4  5  2  0
  4  6  1  0
  6  7  1  0
  7  8  1  0
  8  9  2  0
  8 10  1  0
 10 11  1  0
 10 12  1  0
M  END
>  <s_m_entry_id>  (4) 
108

>  <s_m_entry_name>  (4) 
SIM_Broad_MProResults_ligprep.108

>  <Mol2_MolInfo_Name>  (4) 
11206

>  <Mol2_MolInfo_Type>  (4) 
SMALL

>  <Mol2_MolInfo_Charge>  (4) 
USER_CHARGES

>  <Mol2_Substructures>  (4) 
     1 UNK         1 GROUP             0       ****    0 ROOT    

>  <Name>  (4) 
11206

>  <s_m_Source_Path>  (4) 
/home/jgilaber/drug_learning/drug_learning/datasets/SARS2

>  <s_m_Source_File>  (4) 
SIM_Broad_MProResults_ligprep.sd

>  <i_m_Source_File_Index>  (4) 
108

>  <s_m_subgroup_title>  (4) 
SIM_Broad_MProResults_ligprep

>  <s_m_subgroupid>  (4) 
SIM_Broad_MProResults_ligprep

>  <b_m_subgroup_collapsed>  (4) 
0

$$$$
5185
     RDKit          2D

 11 11  0  0  1  0  0  0  0  0999 V2000
   -4.4086   -1.1616    0.0000 C   0  0  0  0  0  0  0  0  0  0  0  0
   -2.9263   -0.9317    0.0000 C   0  0  0  0  0  0  0  0  0  0  0  0
   -2.3842    0.4669    0.0000 C   0  0  0  0  0  0  0  0  0  0  0  0
   -3.3244    1.6357    0.0000 C   0  0  0  0  0  0  0  0  0  0  0  0
   -0.9019    0.6967    0.0000 S   0  0  0  0  0  0  0  0  0  0  0  0
    0.0382   -0.4721    0.0000 S   0  0  0  0  0  0  0  0  0  0  0  0
    1.5205   -0.2423    0.0000 C   0  0  0  0  0  0  0  0  0  0  0  0
    2.5777   -1.3064    0.0000 N   0  0  0  0  0  0  0  0  0  0  0  0
    3.9165   -0.6297    0.0000 C   0  0  0  0  0  0  0  0  0  0  0  0
    3.6866    0.8525    0.0000 C   0  0  0  0  0  0  0  0  0  0  0  0
    2.2059    1.0920    0.0000 N   0  0  0  0  0  0  0  0  0  0  0  0
  1  2  1  0
  2  3  1  0
  3  4  1  0
  3  5  1  0
  5  6  1  0
  6  7  1  0
  7  8  2  0
  7 11  1  0
  8  9  1  0
  9 10  2  0
 10 11  1  0
M  END
>  <s_m_entry_id>  (5) 
253

>  <s_m_entry_name>  (5) 
SIM_Broad_MProResults_ligprep.253

>  <Mol2_MolInfo_Name>  (5) 
5185

>  <Mol2_MolInfo_Type>  (5) 
SMALL

>  <Mol2_MolInfo_Charge>  (5) 
USER_CHARGES

>  <Mol2_Substructures>  (5) 
     1 UNK         1 GROUP             0       ****    0 ROOT    

>  <Name>  (5) 
5185

>  <s_m_Source_Path>  (5) 
/home/jgilaber/drug_learning/drug_learning/datasets/SARS2

>  <s_m_Source_File>  (5) 
SIM_Broad_MProResults_ligprep.sd

>  <i_m_Source_File_Index>  (5) 
253

>  <s_m_subgroup_title>  (5) 
SIM_Broad_MProResults_ligprep

>  <s_m_subgroupid>  (5) 
SIM_Broad_MProResults_ligprep

>  <b_m_subgroup_collapsed>  (5) 
0

$$$$
9599
     RDKit          2D

 18 18  0  0  1  0  0  0  0  0999 V2000
   -4.9873   -1.6962    0.0000 N   0  0  0  0  0  0  0  0  0  0  0  0
   -4.8174   -0.2058    0.0000 C   0  0  0  0  0  0  0  0  0  0  0  0
   -6.0232    0.6865    0.0000 C   0  0  0  0  0  0  0  0  0  0  0  0
   -7.3988    0.0884    0.0000 O   0  0  0  0  0  0  0  0  0  0  0  0
   -3.4418    0.3923    0.0000 C   0  0  0  0  0  0  0  0  0  0  0  0
   -3.2720    1.8826    0.0000 O   0  0  0  0  0  0  0  0  0  0  0  0
   -2.2361   -0.5000    0.0000 N   0  0  0  0  0  0  0  0  0  0  0  0
   -0.8605    0.0981    0.0000 N   0  0  0  0  0  0  0  0  0  0  0  0
    0.3453   -0.7942    0.0000 C   0  0  0  0  0  0  0  0  0  0  0  0
    1.7209   -0.1961    0.0000 C   0  0  0  0  0  0  0  0  0  0  0  0
    1.8908    1.2942    0.0000 C   0  0  0  0  0  0  0  0  0  0  0  0
    3.2664    1.8923    0.0000 C   0  0  0  0  0  0  0  0  0  0  0  0
    4.4721    1.0000    0.0000 C   0  0  0  0  0  0  0  0  0  0  0  0
    5.8477    1.5981    0.0000 O   0  0  0  0  0  0  0  0  0  0  0  0
    4.3023   -0.4903    0.0000 C   0  0  0  0  0  0  0  0  0  0  0  0
    5.5080   -1.3826    0.0000 O   0  0  0  0  0  0  0  0  0  0  0  0
    2.9267   -1.0884    0.0000 C   0  0  0  0  0  0  0  0  0  0  0  0
    2.7568   -2.5788    0.0000 O   0  0  0  0  0  0  0  0  0  0  0  0
  1  2  1  0
  2  3  1  0
  2  5  1  0
  3  4  1  0
  5  6  2  0
  5  7  1  0
  7  8  1  0
  8  9  1  0
  9 10  1  0
 10 11  2  0
 10 17  1  0
 11 12  1  0
 12 13  2  0
 13 14  1  0
 13 15  1  0
 15 16  1  0
 15 17  2  0
 17 18  1  0
M  END
>  <s_m_entry_id>  (6) 
237

>  <s_m_entry_name>  (6) 
SIM_Broad_MProResults_ligprep.237

>  <Mol2_MolInfo_Name>  (6) 
9599

>  <Mol2_MolInfo_Type>  (6) 
SMALL

>  <Mol2_MolInfo_Charge>  (6) 
USER_CHARGES

>  <Mol2_Substructures>  (6) 
     1 ****        1 GROUP             0       ****    0 ROOT    

>  <Name>  (6) 
9599

>  <s_m_Source_Path>  (6) 
/home/jgilaber/drug_learning/drug_learning/datasets/SARS2

>  <s_m_Source_File>  (6) 
SIM_Broad_MProResults_ligprep.sd

>  <i_m_Source_File_Index>  (6) 
237

>  <s_m_subgroup_title>  (6) 
SIM_Broad_MProResults_ligprep

>  <s_m_subgroupid>  (6) 
SIM_Broad_MProResults_ligprep

>  <b_m_subgroup_collapsed>  (6) 
0

$$$$
3878
     RDKit          2D

 24 27  0  0  1  0  0  0  0  0999 V2000
    1.7368    4.5064    0.0000 O   0  0  0  0  0  0  0  0  0  0  0  0
    0.9768    3.2132    0.0000 C   0  0  0  0  0  0  0  0  0  0  0  0
   -0.5162    3.0680    0.0000 S   0  0  0  0  0  0  0  0  0  0  0  0
   -0.8394    1.6032    0.0000 N   0  0  0  0  0  0  0  0  0  0  0  0
    0.4537    0.8431    0.0000 C   0  0  0  0  0  0  0  0  0  0  0  0
    0.5990   -0.6498    0.0000 O   0  0  0  0  0  0  0  0  0  0  0  0
    1.5762    1.8382    0.0000 N   0  0  0  0  0  0  0  0  0  0  0  0
    3.0410    1.5149    0.0000 C   0  0  0  0  0  0  0  0  0  0  0  0
    3.4934    0.0848    0.0000 C   0  0  0  0  0  0  0  0  0  0  0  0
    2.4811   -1.0221    0.0000 C   0  0  0  0  0  0  0  0  0  0  0  0
    2.9336   -2.4522    0.0000 C   0  0  0  0  0  0  0  0  0  0  0  0
    4.3983   -2.7755    0.0000 C   0  0  0  0  0  0  0  0  0  0  0  0
    5.4106   -1.6686    0.0000 C   0  0  0  0  0  0  0  0  0  0  0  0
    4.9582   -0.2384    0.0000 C   0  0  0  0  0  0  0  0  0  0  0  0
   -2.2144    1.0037    0.0000 C   0  0  0  0  0  0  0  0  0  0  0  0
   -3.4211    1.8948    0.0000 C   0  0  0  0  0  0  0  0  0  0  0  0
   -4.7961    1.2953    0.0000 C   0  0  0  0  0  0  0  0  0  0  0  0
   -4.9645   -0.1952    0.0000 C   0  0  0  0  0  0  0  0  0  0  0  0
   -3.7578   -1.0862    0.0000 C   0  0  0  0  0  0  0  0  0  0  0  0
   -3.9262   -2.5768    0.0000 C   0  0  0  0  0  0  0  0  0  0  0  0
   -2.7195   -3.4678    0.0000 C   0  0  0  0  0  0  0  0  0  0  0  0
   -1.3445   -2.8684    0.0000 C   0  0  0  0  0  0  0  0  0  0  0  0
   -1.1761   -1.3778    0.0000 C   0  0  0  0  0  0  0  0  0  0  0  0
   -2.3828   -0.4868    0.0000 C   0  0  0  0  0  0  0  0  0  0  0  0
  1  2  2  0
  2  3  1  0
  2  7  1  0
  3  4  1  0
  4  5  1  0
  4 15  1  0
  5  6  2  0
  5  7  1  0
  7  8  1  0
  8  9  1  0
  9 10  2  0
  9 14  1  0
 10 11  1  0
 11 12  2  0
 12 13  1  0
 13 14  2  0
 15 16  2  0
 15 24  1  0
 16 17  1  0
 17 18  2  0
 18 19  1  0
 19 20  1  0
 19 24  2  0
 20 21  2  0
 21 22  1  0
 22 23  2  0
 23 24  1  0
M  END
>  <s_m_entry_id>  (7) 
197

>  <s_m_entry_name>  (7) 
SIM_Broad_MProResults_ligprep.197

>  <Mol2_MolInfo_Name>  (7) 
3878

>  <Mol2_MolInfo_Type>  (7) 
SMALL

>  <Mol2_MolInfo_Charge>  (7) 
USER_CHARGES

>  <Mol2_Substructures>  (7) 
     1 ****        1 GROUP             0       ****    0 ROOT    

>  <Name>  (7) 
3878

>  <s_m_Source_Path>  (7) 
/home/jgilaber/drug_learning/drug_learning/datasets/SARS2

>  <s_m_Source_File>  (7) 
SIM_Broad_MProResults_ligprep.sd

>  <i_m_Source_File_Index>  (7) 
197

>  <s_m_subgroup_title>  (7) 
SIM_Broad_MProResults_ligprep

>  <s_m_subgroupid>  (7) 
SIM_Broad_MProResults_ligprep

>  <b_m_subgroup_collapsed>  (7) 
0

$$$$
4448
     RDKit          2D

 13 14  0  0  1  0  0  0  0  0999 V2000
   -4.3398   -0.3711    0.0000 Br  0  0  0  0  0  0  0  0  0  0  0  0
   -2.8698   -0.0727    0.0000 C   0  0  0  0  0  0  0  0  0  0  0  0
   -2.3932    1.3496    0.0000 C   0  0  0  0  0  0  0  0  0  0  0  0
   -0.9232    1.6480    0.0000 C   0  0  0  0  0  0  0  0  0  0  0  0
    0.0702    0.5241    0.0000 C   0  0  0  0  0  0  0  0  0  0  0  0
    1.5403    0.8224    0.0000 C   0  0  0  0  0  0  0  0  0  0  0  0
    2.0169    2.2447    0.0000 O   0  0  0  0  0  0  0  0  0  0  0  0
    2.5337   -0.3014    0.0000 C   0  0  0  0  0  0  0  0  0  0  0  0
    4.0037   -0.0031    0.0000 O   0  0  0  0  0  0  0  0  0  0  0  0
    2.0571   -1.7237    0.0000 C   0  0  0  0  0  0  0  0  0  0  0  0
    0.5870   -2.0221    0.0000 C   0  0  0  0  0  0  0  0  0  0  0  0
   -0.4064   -0.8982    0.0000 C   0  0  0  0  0  0  0  0  0  0  0  0
   -1.8764   -1.1966    0.0000 C   0  0  0  0  0  0  0  0  0  0  0  0
  1  2  1  0
  2  3  2  0
  2 13  1  0
  3  4  1  0
  4  5  2  0
  5  6  1  0
  5 12  1  0
  6  7  2  0
  6  8  1  0
  8  9  2  0
  8 10  1  0
 10 11  2  0
 11 12  1  0
 12 13  2  0
M  END
>  <s_m_entry_id>  (8) 
251

>  <s_m_entry_name>  (8) 
SIM_Broad_MProResults_ligprep.251

>  <Mol2_MolInfo_Name>  (8) 
4448

>  <Mol2_MolInfo_Type>  (8) 
SMALL

>  <Mol2_MolInfo_Charge>  (8) 
USER_CHARGES

>  <Mol2_Substructures>  (8) 
     1 UNK         1 GROUP             0       ****    0 ROOT    

>  <Name>  (8) 
4448

>  <s_m_Source_Path>  (8) 
/home/jgilaber/drug_learning/drug_learning/datasets/SARS2

>  <s_m_Source_File>  (8) 
SIM_Broad_MProResults_ligprep.sd

>  <i_m_Source_File_Index>  (8) 
251

>  <s_m_subgroup_title>  (8) 
SIM_Broad_MProResults_ligprep

>  <s_m_subgroupid>  (8) 
SIM_Broad_MProResults_ligprep

>  <b_m_subgroup_collapsed>  (8) 
0

$$$$
1209
     RDKit          2D

 23 25  0  0  1  0  0  0  0  0999 V2000
   -0.6622    2.7031    0.0000 O   0  0  0  0  0  0  0  0  0  0  0  0
    0.2554    1.5165    0.0000 C   0  0  0  0  0  0  0  0  0  0  0  0
   -0.3136    0.1285    0.0000 C   0  0  0  0  0  0  0  0  0  0  0  0
    0.6040   -1.0581    0.0000 O   0  0  0  0  0  0  0  0  0  0  0  0
    2.0904   -0.8569    0.0000 C   0  0  0  0  0  0  0  0  0  0  0  0
    3.0079   -2.0435    0.0000 C   0  0  0  0  0  0  0  0  0  0  0  0
    4.4944   -1.8423    0.0000 C   0  0  0  0  0  0  0  0  0  0  0  0
    5.4119   -3.0289    0.0000 O   0  0  0  0  0  0  0  0  0  0  0  0
    5.0633   -0.4543    0.0000 C   0  0  0  0  0  0  0  0  0  0  0  0
    4.1457    0.7323    0.0000 C   0  0  0  0  0  0  0  0  0  0  0  0
    4.7147    2.1203    0.0000 O   0  0  0  0  0  0  0  0  0  0  0  0
    2.6593    0.5311    0.0000 C   0  0  0  0  0  0  0  0  0  0  0  0
    1.7418    1.7177    0.0000 C   0  0  0  0  0  0  0  0  0  0  0  0
    2.3107    3.1056    0.0000 O   0  0  0  0  0  0  0  0  0  0  0  0
   -1.8000   -0.0727    0.0000 C   0  0  0  0  0  0  0  0  0  0  0  0
   -2.7175    1.1139    0.0000 C   0  0  0  0  0  0  0  0  0  0  0  0
   -4.2040    0.9127    0.0000 C   0  0  0  0  0  0  0  0  0  0  0  0
   -5.1215    2.0993    0.0000 O   0  0  0  0  0  0  0  0  0  0  0  0
   -4.7729   -0.4753    0.0000 C   0  0  0  0  0  0  0  0  0  0  0  0
   -6.2593   -0.6765    0.0000 O   0  0  0  0  0  0  0  0  0  0  0  0
   -3.8553   -1.6619    0.0000 C   0  0  0  0  0  0  0  0  0  0  0  0
   -4.4243   -3.0499    0.0000 O   0  0  0  0  0  0  0  0  0  0  0  0
   -2.3689   -1.4607    0.0000 C   0  0  0  0  0  0  0  0  0  0  0  0
  1  2  1  0
  2  3  1  0
  2 13  1  0
  3  4  1  0
  3 15  1  0
  4  5  1  0
  5  6  1  0
  5 12  2  0
  6  7  2  0
  7  8  1  0
  7  9  1  0
  9 10  2  0
 10 11  1  0
 10 12  1  0
 12 13  1  0
 13 14  2  0
 15 16  2  0
 15 23  1  0
 16 17  1  0
 17 18  1  0
 17 19  2  0
 19 20  1  0
 19 21  1  0
 21 22  1  0
 21 23  2  0
M  END
>  <s_m_entry_id>  (9) 
243

>  <s_m_entry_name>  (9) 
SIM_Broad_MProResults_ligprep.243

>  <Mol2_MolInfo_Name>  (9) 
1209

>  <Mol2_MolInfo_Type>  (9) 
SMALL

>  <Mol2_MolInfo_Charge>  (9) 
USER_CHARGES

>  <Mol2_Substructures>  (9) 
     1 UNK         1 GROUP             0       ****    0 ROOT    

>  <Name>  (9) 
1209

>  <s_m_Source_Path>  (9) 
/home/jgilaber/drug_learning/drug_learning/datasets/SARS2

>  <s_m_Source_File>  (9) 
SIM_Broad_MProResults_ligprep.sd

>  <i_m_Source_File_Index>  (9) 
243

>  <s_m_subgroup_title>  (9) 
SIM_Broad_MProResults_ligprep

>  <s_m_subgroupid>  (9) 
SIM_Broad_MProResults_ligprep

>  <b_m_subgroup_collapsed>  (9) 
0

$$$$
12367
     RDKit          2D

  8  8  0  0  1  0  0  0  0  0999 V2000
    2.2975   -1.2990    0.0000 S   0  0  0  0  0  0  0  0  0  0  0  0
    1.5475   -0.0000    0.0000 C   0  0  0  0  0  0  0  0  0  0  0  0
    2.2975    1.2990    0.0000 S   0  0  0  0  0  0  0  0  0  0  0  0
    0.0475   -0.0000    0.0000 N   0  0  0  0  0  0  0  0  0  0  0  0
   -0.8342    1.2135    0.0000 C   0  0  0  0  0  0  0  0  0  0  0  0
   -2.2608    0.7500    0.0000 C   0  0  0  0  0  0  0  0  0  0  0  0
   -2.2608   -0.7500    0.0000 C   0  0  0  0  0  0  0  0  0  0  0  0
   -0.8342   -1.2135    0.0000 C   0  0  0  0  0  0  0  0  0  0  0  0
  1  2  1  0
  2  3  2  0
  2  4  1  0
  4  5  1  0
  4  8  1  0
  5  6  1  0
  6  7  1  0
  7  8  1  0
M  END
>  <s_m_entry_id>  (10) 
158

>  <s_m_entry_name>  (10) 
SIM_Broad_MProResults_ligprep.158

>  <Mol2_MolInfo_Name>  (10) 
12367

>  <Mol2_MolInfo_Type>  (10) 
SMALL

>  <Mol2_MolInfo_Charge>  (10) 
USER_CHARGES

>  <Mol2_Substructures>  (10) 
     1 UNK         1 GROUP             0       ****    0 ROOT    

>  <Name>  (10) 
12367

>  <s_m_Source_Path>  (10) 
/home/jgilaber/drug_learning/drug_learning/datasets/SARS2

>  <s_m_Source_File>  (10) 
SIM_Broad_MProResults_ligprep.sd

>  <i_m_Source_File_Index>  (10) 
158

>  <s_m_subgroup_title>  (10) 
SIM_Broad_MProResults_ligprep

>  <s_m_subgroupid>  (10) 
SIM_Broad_MProResults_ligprep

>  <b_m_subgroup_collapsed>  (10) 
0

$$$$
8240
     RDKit          2D

 16 15  0  0  1  0  0  0  0  0999 V2000
    2.4292    2.5599    0.0000 C   0  0  0  0  0  0  0  0  0  0  0  0
    3.6564    1.6975    0.0000 C   0  0  0  0  0  0  0  0  0  0  0  0
    3.5232    0.2034    0.0000 N   0  0  0  0  0  0  0  0  0  0  0  0
    4.7504   -0.6590    0.0000 C   0  0  0  0  0  0  0  0  0  0  0  0
    4.6172   -2.1531    0.0000 C   0  0  0  0  0  0  0  0  0  0  0  0
    2.1626   -0.4282    0.0000 C   0  0  0  0  0  0  0  0  0  0  0  0
    2.0294   -1.9223    0.0000 S   0  0  0  0  0  0  0  0  0  0  0  0
    0.9354    0.4342    0.0000 S   0  0  0  0  0  0  0  0  0  0  0  0
   -0.4252   -0.1974    0.0000 S   0  0  0  0  0  0  0  0  0  0  0  0
   -1.6524    0.6651    0.0000 C   0  0  0  0  0  0  0  0  0  0  0  0
   -1.5192    2.1591    0.0000 S   0  0  0  0  0  0  0  0  0  0  0  0
   -3.0130    0.0334    0.0000 N   0  0  0  0  0  0  0  0  0  0  0  0
   -4.2402    0.8959    0.0000 C   0  0  0  0  0  0  0  0  0  0  0  0
   -5.6008    0.2642    0.0000 C   0  0  0  0  0  0  0  0  0  0  0  0
   -3.1462   -1.4606    0.0000 C   0  0  0  0  0  0  0  0  0  0  0  0
   -4.5068   -2.0923    0.0000 C   0  0  0  0  0  0  0  0  0  0  0  0
  1  2  1  0
  2  3  1  0
  3  4  1  0
  3  6  1  0
  4  5  1  0
  6  7  2  0
  6  8  1  0
  8  9  1  0
  9 10  1  0
 10 11  2  0
 10 12  1  0
 12 13  1  0
 12 15  1  0
 13 14  1  0
 15 16  1  0
M  END
>  <s_m_entry_id>  (11) 
227

>  <s_m_entry_name>  (11) 
SIM_Broad_MProResults_ligprep.227

>  <Mol2_MolInfo_Name>  (11) 
8240

>  <Mol2_MolInfo_Type>  (11) 
SMALL

>  <Mol2_MolInfo_Charge>  (11) 
USER_CHARGES

>  <Mol2_Substructures>  (11) 
     1 ****        1 GROUP             0       ****    0 ROOT    

>  <Name>  (11) 
8240

>  <s_m_Source_Path>  (11) 
/home/jgilaber/drug_learning/drug_learning/datasets/SARS2

>  <s_m_Source_File>  (11) 
SIM_Broad_MProResults_ligprep.sd

>  <i_m_Source_File_Index>  (11) 
227

>  <s_m_subgroup_title>  (11) 
SIM_Broad_MProResults_ligprep

>  <s_m_subgroupid>  (11) 
SIM_Broad_MProResults_ligprep

>  <b_m_subgroup_collapsed>  (11) 
0

$$$$
12313
     RDKit          2D

 22 25  0  0  1  0  0  0  0  0999 V2000
   -5.9175   -0.6738    0.0000 O   0  0  0  0  0  0  0  0  0  0  0  0
   -4.4314   -0.4703    0.0000 C   0  0  0  0  0  0  0  0  0  0  0  0
   -3.8646    0.9185    0.0000 C   0  0  0  0  0  0  0  0  0  0  0  0
   -2.3784    1.1220    0.0000 C   0  0  0  0  0  0  0  0  0  0  0  0
   -1.5352    2.3625    0.0000 C   0  0  0  0  0  0  0  0  0  0  0  0
   -0.0948    1.9440    0.0000 C   0  0  0  0  0  0  0  0  0  0  0  0
   -0.2983    3.4301    0.0000 O   0  0  0  0  0  0  0  0  0  0  0  0
    1.1801    2.7343    0.0000 C   0  0  0  0  0  0  0  0  0  0  0  0
    2.5020    2.0254    0.0000 O   0  0  0  0  0  0  0  0  0  0  0  0
    2.5490    0.5262    0.0000 C   0  0  0  0  0  0  0  0  0  0  0  0
    3.8709   -0.1827    0.0000 C   0  0  0  0  0  0  0  0  0  0  0  0
    5.1458    0.6076    0.0000 O   0  0  0  0  0  0  0  0  0  0  0  0
    3.9180   -1.6820    0.0000 C   0  0  0  0  0  0  0  0  0  0  0  0
    5.2399   -2.3909    0.0000 O   0  0  0  0  0  0  0  0  0  0  0  0
    2.6431   -2.4724    0.0000 C   0  0  0  0  0  0  0  0  0  0  0  0
    1.3212   -1.7635    0.0000 C   0  0  0  0  0  0  0  0  0  0  0  0
    1.2741   -0.2642    0.0000 C   0  0  0  0  0  0  0  0  0  0  0  0
   -0.0478    0.4447    0.0000 C   0  0  0  0  0  0  0  0  0  0  0  0
   -1.4591   -0.0633    0.0000 C   0  0  0  0  0  0  0  0  0  0  0  0
   -2.0260   -1.4521    0.0000 C   0  0  0  0  0  0  0  0  0  0  0  0
   -3.5121   -1.6556    0.0000 C   0  0  0  0  0  0  0  0  0  0  0  0
   -4.0789   -3.0444    0.0000 O   0  0  0  0  0  0  0  0  0  0  0  0
  1  2  1  0
  2  3  2  0
  2 21  1  0
  3  4  1  0
  4  5  1  0
  4 19  2  0
  5  6  1  0
  6  7  1  0
  6  8  1  0
  6 18  1  0
  8  9  1  0
  9 10  1  0
 10 11  2  0
 10 17  1  0
 11 12  1  0
 11 13  1  0
 13 14  1  0
 13 15  2  0
 15 16  1  0
 16 17  2  0
 17 18  1  0
 18 19  1  0
 19 20  1  0
 20 21  2  0
 21 22  1  0
M  END
>  <s_m_entry_id>  (12) 
155

>  <s_m_entry_name>  (12) 
SIM_Broad_MProResults_ligprep.155

>  <Mol2_MolInfo_Name>  (12) 
12313

>  <Mol2_MolInfo_Type>  (12) 
SMALL

>  <Mol2_MolInfo_Charge>  (12) 
USER_CHARGES

>  <Mol2_Substructures>  (12) 
     1 UNK         1 GROUP             0       ****    0 ROOT    

>  <Name>  (12) 
12313

>  <s_m_Source_Path>  (12) 
/home/jgilaber/drug_learning/drug_learning/datasets/SARS2

>  <s_m_Source_File>  (12) 
SIM_Broad_MProResults_ligprep.sd

>  <i_m_Source_File_Index>  (12) 
155

>  <s_m_subgroup_title>  (12) 
SIM_Broad_MProResults_ligprep

>  <s_m_subgroupid>  (12) 
SIM_Broad_MProResults_ligprep

>  <b_m_subgroup_collapsed>  (12) 
0

$$$$
10732
     RDKit          2D

 22 24  0  0  1  0  0  0  0  0999 V2000
   -6.2769   -2.5312    0.0000 C   0  0  0  0  0  0  0  0  0  0  0  0
   -5.0746   -1.6343    0.0000 C   0  0  0  0  0  0  0  0  0  0  0  0
   -5.2501   -0.1446    0.0000 C   0  0  0  0  0  0  0  0  0  0  0  0
   -4.0478    0.7522    0.0000 C   0  0  0  0  0  0  0  0  0  0  0  0
   -2.6699    0.1594    0.0000 C   0  0  0  0  0  0  0  0  0  0  0  0
   -2.4944   -1.3303    0.0000 C   0  0  0  0  0  0  0  0  0  0  0  0
   -3.6967   -2.2272    0.0000 C   0  0  0  0  0  0  0  0  0  0  0  0
   -1.4675    1.0563    0.0000 N   0  0  0  0  0  0  0  0  0  0  0  0
   -1.4864    2.5561    0.0000 S   0  0  0  0  0  0  0  0  0  0  0  0
   -0.0657    3.0376    0.0000 C   0  0  0  0  0  0  0  0  0  0  0  0
    0.3798    4.4698    0.0000 O   0  0  0  0  0  0  0  0  0  0  0  0
    0.8311    1.8352    0.0000 N   0  0  0  0  0  0  0  0  0  0  0  0
    2.3310    1.8540    0.0000 C   0  0  0  0  0  0  0  0  0  0  0  0
    3.0973    0.5645    0.0000 C   0  0  0  0  0  0  0  0  0  0  0  0
    2.3636   -0.7438    0.0000 C   0  0  0  0  0  0  0  0  0  0  0  0
    3.1299   -2.0333    0.0000 C   0  0  0  0  0  0  0  0  0  0  0  0
    4.6298   -2.0145    0.0000 C   0  0  0  0  0  0  0  0  0  0  0  0
    5.3961   -3.3040    0.0000 F   0  0  0  0  0  0  0  0  0  0  0  0
    5.3634   -0.7061    0.0000 C   0  0  0  0  0  0  0  0  0  0  0  0
    4.5971    0.5834    0.0000 C   0  0  0  0  0  0  0  0  0  0  0  0
   -0.0352    0.6107    0.0000 C   0  0  0  0  0  0  0  0  0  0  0  0
    0.4462   -0.8100    0.0000 O   0  0  0  0  0  0  0  0  0  0  0  0
  1  2  1  0
  2  3  2  0
  2  7  1  0
  3  4  1  0
  4  5  2  0
  5  6  1  0
  5  8  1  0
  6  7  2  0
  8  9  1  0
  8 21  1  0
  9 10  1  0
 10 11  2  0
 10 12  1  0
 12 13  1  0
 12 21  1  0
 13 14  1  0
 14 15  2  0
 14 20  1  0
 15 16  1  0
 16 17  2  0
 17 18  1  0
 17 19  1  0
 19 20  2  0
 21 22  2  0
M  END
>  <s_m_entry_id>  (13) 
82

>  <s_m_entry_name>  (13) 
SIM_Broad_MProResults_ligprep.82

>  <Mol2_MolInfo_Name>  (13) 
10732

>  <Mol2_MolInfo_Type>  (13) 
SMALL

>  <Mol2_MolInfo_Charge>  (13) 
USER_CHARGES

>  <Mol2_Substructures>  (13) 
     1 UNK         1 GROUP             0       ****    0 ROOT    

>  <Name>  (13) 
10732

>  <s_m_Source_Path>  (13) 
/home/jgilaber/drug_learning/drug_learning/datasets/SARS2

>  <s_m_Source_File>  (13) 
SIM_Broad_MProResults_ligprep.sd

>  <i_m_Source_File_Index>  (13) 
82

>  <s_m_subgroup_title>  (13) 
SIM_Broad_MProResults_ligprep

>  <s_m_subgroupid>  (13) 
SIM_Broad_MProResults_ligprep

>  <b_m_subgroup_collapsed>  (13) 
0

$$$$
11027
     RDKit          2D

 29 32  0  0  1  0  0  0  0  0999 V2000
   -5.6073    2.6724    0.0000 O   0  0  0  0  0  0  0  0  0  0  0  0
   -4.1142    2.5289    0.0000 Q   0  0  0  0  0  0  0  0  0  0  0  0
   -3.4919    1.1641    0.0000 C   0  0  0  0  0  0  0  0  0  0  0  0
   -4.3627   -0.0573    0.0000 C   0  0  0  0  0  0  0  0  0  0  0  0
   -5.8559    0.0862    0.0000 O   0  0  0  0  0  0  0  0  0  0  0  0
   -3.7404   -1.4221    0.0000 C   0  0  0  0  0  0  0  0  0  0  0  0
   -4.6113   -2.6434    0.0000 Br  0  0  0  0  0  0  0  0  0  0  0  0
   -2.2473   -1.5656    0.0000 C   0  0  0  0  0  0  0  0  0  0  0  0
   -1.3765   -0.3443    0.0000 C   0  0  0  0  0  0  0  0  0  0  0  0
    0.1166   -0.4878    0.0000 C   0  0  0  0  0  0  0  0  0  0  0  0
    0.9875    0.7336    0.0000 C   0  0  0  0  0  0  0  0  0  0  0  0
    2.4806    0.5901    0.0000 C   0  0  0  0  0  0  0  0  0  0  0  0
    3.3514    1.8114    0.0000 C   0  0  0  0  0  0  0  0  0  0  0  0
    4.8445    1.6679    0.0000 Br  0  0  0  0  0  0  0  0  0  0  0  0
    2.7291    3.1762    0.0000 C   0  0  0  0  0  0  0  0  0  0  0  0
    3.5999    4.3976    0.0000 O   0  0  0  0  0  0  0  0  0  0  0  0
    1.2360    3.3197    0.0000 C   0  0  0  0  0  0  0  0  0  0  0  0
    0.3652    2.0984    0.0000 C   0  0  0  0  0  0  0  0  0  0  0  0
   -1.1280    2.2419    0.0000 O   0  0  0  0  0  0  0  0  0  0  0  0
   -1.9988    1.0206    0.0000 C   0  0  0  0  0  0  0  0  0  0  0  0
    0.7389   -1.8526    0.0000 C   0  0  0  0  0  0  0  0  0  0  0  0
   -0.1319   -3.0739    0.0000 C   0  0  0  0  0  0  0  0  0  0  0  0
    0.4904   -4.4387    0.0000 C   0  0  0  0  0  0  0  0  0  0  0  0
    1.9835   -4.5822    0.0000 C   0  0  0  0  0  0  0  0  0  0  0  0
    2.8543   -3.3609    0.0000 C   0  0  0  0  0  0  0  0  0  0  0  0
    2.2320   -1.9961    0.0000 C   0  0  0  0  0  0  0  0  0  0  0  0
    3.1029   -0.7747    0.0000 C   0  0  0  0  0  0  0  0  0  0  0  0
    2.9575    0.0090    0.0000 O   0  0  0  0  0  0  0  0  0  0  0  0
    4.5960   -0.9182    0.0000 O   0  0  0  0  0  0  0  0  0  0  0  0
  1  2  1  0
  2  3  1  0
  3  4  2  0
  3 20  1  0
  4  5  1  0
  4  6  1  0
  6  7  1  0
  6  8  2  0
  8  9  1  0
  9 10  1  0
  9 20  2  0
 10 11  2  0
 10 21  1  0
 11 12  1  0
 11 18  1  0
 12 13  2  0
 13 14  1  0
 13 15  1  0
 15 16  2  0
 15 17  1  0
 17 18  2  0
 18 19  1  0
 19 20  1  0
 21 22  2  0
 21 26  1  0
 22 23  1  0
 23 24  2  0
 24 25  1  0
 25 26  2  0
 26 27  1  0
 27 28  2  0
 27 29  1  0
M  CHG  1  29  -1
V    2 [!#6&!#1]
M  END
>  <s_m_entry_id>  (14) 
101

>  <s_m_entry_name>  (14) 
SIM_Broad_MProResults_ligprep.101

>  <Mol2_MolInfo_Name>  (14) 
11027

>  <Mol2_MolInfo_Type>  (14) 
SMALL

>  <Mol2_MolInfo_Charge>  (14) 
USER_CHARGES

>  <Mol2_Substructures>  (14) 
     1 UNK         1 GROUP             0       ****    0 ROOT    

>  <Name>  (14) 
11027

>  <s_m_Source_Path>  (14) 
/home/jgilaber/drug_learning/drug_learning/datasets/SARS2

>  <s_m_Source_File>  (14) 
SIM_Broad_MProResults_ligprep.sd

>  <i_m_Source_File_Index>  (14) 
101

>  <s_m_subgroup_title>  (14) 
SIM_Broad_MProResults_ligprep

>  <s_m_subgroupid>  (14) 
SIM_Broad_MProResults_ligprep

>  <b_m_subgroup_collapsed>  (14) 
0

$$$$
11142
     RDKit          2D

 20 21  0  0  1  0  0  0  0  0999 V2000
   -7.3165    1.0158    0.0000 O   0  0  0  0  0  0  0  0  0  0  0  0
   -6.4056   -0.1760    0.0000 C   0  0  0  0  0  0  0  0  0  0  0  0
   -6.9822   -1.5607    0.0000 O   0  0  0  0  0  0  0  0  0  0  0  0
   -4.9180    0.0170    0.0000 C   0  0  0  0  0  0  0  0  0  0  0  0
   -4.3414    1.4017    0.0000 C   0  0  0  0  0  0  0  0  0  0  0  0
   -2.8539    1.5947    0.0000 C   0  0  0  0  0  0  0  0  0  0  0  0
   -1.9430    0.4029    0.0000 C   0  0  0  0  0  0  0  0  0  0  0  0
   -0.4554    0.5959    0.0000 S   0  0  0  0  0  0  0  0  0  0  0  0
    0.4554   -0.5959    0.0000 S   0  0  0  0  0  0  0  0  0  0  0  0
    1.9430   -0.4029    0.0000 C   0  0  0  0  0  0  0  0  0  0  0  0
    2.8539   -1.5947    0.0000 C   0  0  0  0  0  0  0  0  0  0  0  0
    4.3414   -1.4017    0.0000 C   0  0  0  0  0  0  0  0  0  0  0  0
    4.9180   -0.0170    0.0000 C   0  0  0  0  0  0  0  0  0  0  0  0
    4.0072    1.1748    0.0000 C   0  0  0  0  0  0  0  0  0  0  0  0
    2.5196    0.9818    0.0000 N   0  0  0  0  0  0  0  0  0  0  0  0
    6.4056    0.1760    0.0000 C   0  0  0  0  0  0  0  0  0  0  0  0
    6.9822    1.5607    0.0000 O   0  0  0  0  0  0  0  0  0  0  0  0
    7.3165   -1.0158    0.0000 O   0  0  0  0  0  0  0  0  0  0  0  0
   -2.5196   -0.9818    0.0000 N   0  0  0  0  0  0  0  0  0  0  0  0
   -4.0072   -1.1748    0.0000 C   0  0  0  0  0  0  0  0  0  0  0  0
  1  2  1  0
  2  3  2  0
  2  4  1  0
  4  5  2  0
  4 20  1  0
  5  6  1  0
  6  7  2  0
  7  8  1  0
  7 19  1  0
  8  9  1  0
  9 10  1  0
 10 11  2  0
 10 15  1  0
 11 12  1  0
 12 13  2  0
 13 14  1  0
 13 16  1  0
 14 15  2  0
 16 17  2  0
 16 18  1  0
 19 20  2  0
M  CHG  2   1  -1  18  -1
M  END
>  <s_m_entry_id>  (15) 
105

>  <s_m_entry_name>  (15) 
SIM_Broad_MProResults_ligprep.105

>  <Mol2_MolInfo_Name>  (15) 
11142

>  <Mol2_MolInfo_Type>  (15) 
SMALL

>  <Mol2_MolInfo_Charge>  (15) 
USER_CHARGES

>  <Mol2_Substructures>  (15) 
     1 UNK         1 GROUP             0       ****    0 ROOT    

>  <Name>  (15) 
11142

>  <s_m_Source_Path>  (15) 
/home/jgilaber/drug_learning/drug_learning/datasets/SARS2

>  <s_m_Source_File>  (15) 
SIM_Broad_MProResults_ligprep.sd

>  <i_m_Source_File_Index>  (15) 
105

>  <s_m_subgroup_title>  (15) 
SIM_Broad_MProResults_ligprep

>  <s_m_subgroupid>  (15) 
SIM_Broad_MProResults_ligprep

>  <b_m_subgroup_collapsed>  (15) 
0

$$$$
11287
     RDKit          2D

 22 26  0  0  1  0  0  0  0  0999 V2000
   -1.6533   -3.0000    0.0000 O   0  0  0  0  0  0  0  0  0  0  0  0
   -1.6533   -1.5000    0.0000 C   0  0  0  0  0  0  0  0  0  0  0  0
   -2.9524   -0.7500    0.0000 C   0  0  0  0  0  0  0  0  0  0  0  0
   -2.9524    0.7500    0.0000 C   0  0  0  0  0  0  0  0  0  0  0  0
   -1.6533    1.5000    0.0000 C   0  0  0  0  0  0  0  0  0  0  0  0
   -1.6533    3.0000    0.0000 O   0  0  0  0  0  0  0  0  0  0  0  0
   -0.3543    0.7500    0.0000 C   0  0  0  0  0  0  0  0  0  0  0  0
   -0.3543   -0.7500    0.0000 C   0  0  0  0  0  0  0  0  0  0  0  0
    0.9448   -1.5000    0.0000 C   0  0  0  0  0  0  0  0  0  0  0  0
    2.2438   -0.7500    0.0000 C   0  0  0  0  0  0  0  0  0  0  0  0
    3.5428   -1.5000    0.0000 C   0  0  0  0  0  0  0  0  0  0  0  0
    4.8419   -0.7500    0.0000 C   0  0  0  0  0  0  0  0  0  0  0  0
    4.8419    0.7500    0.0000 C   0  0  0  0  0  0  0  0  0  0  0  0
    3.5428    1.5000    0.0000 C   0  0  0  0  0  0  0  0  0  0  0  0
    2.2438    0.7500    0.0000 C   0  0  0  0  0  0  0  0  0  0  0  0
    0.9448    1.5000    0.0000 C   0  0  0  0  0  0  0  0  0  0  0  0
   -0.3543    0.7500    0.0000 C   0  0  0  0  0  0  0  0  0  0  0  0
   -1.6533    1.5000    0.0000 C   0  0  0  0  0  0  0  0  0  0  0  0
   -2.9524    0.7500    0.0000 C   0  0  0  0  0  0  0  0  0  0  0  0
   -2.9524   -0.7500    0.0000 C   0  0  0  0  0  0  0  0  0  0  0  0
   -1.6533   -1.5000    0.0000 C   0  0  0  0  0  0  0  0  0  0  0  0
   -0.3543   -0.7500    0.0000 C   0  0  0  0  0  0  0  0  0  0  0  0
  1  2  2  0
  2  3  1  0
  2  8  1  0
  3  4  2  0
  4  5  1  0
  5  6  2  0
  5  7  1  0
  7  8  2  0
  7 16  1  0
  8  9  1  0
  9 10  1  0
  9 22  1  0
 10 11  1  0
 10 15  2  0
 11 12  2  0
 12 13  1  0
 13 14  2  0
 14 15  1  0
 15 16  1  0
 16 17  1  0
 17 18  2  0
 17 22  1  0
 18 19  1  0
 19 20  2  0
 20 21  1  0
 21 22  2  0
M  END
>  <s_m_entry_id>  (16) 
113

>  <s_m_entry_name>  (16) 
SIM_Broad_MProResults_ligprep.113

>  <Mol2_MolInfo_Name>  (16) 
11287

>  <Mol2_MolInfo_Type>  (16) 
SMALL

>  <Mol2_MolInfo_Charge>  (16) 
USER_CHARGES

>  <Mol2_Substructures>  (16) 
     1 UNK         1 GROUP             0       ****    0 ROOT    

>  <Name>  (16) 
11287

>  <s_m_Source_Path>  (16) 
/home/jgilaber/drug_learning/drug_learning/datasets/SARS2

>  <s_m_Source_File>  (16) 
SIM_Broad_MProResults_ligprep.sd

>  <i_m_Source_File_Index>  (16) 
113

>  <s_m_subgroup_title>  (16) 
SIM_Broad_MProResults_ligprep

>  <s_m_subgroupid>  (16) 
SIM_Broad_MProResults_ligprep

>  <b_m_subgroup_collapsed>  (16) 
0

$$$$
11438
     RDKit          2D

 13 13  0  0  1  0  0  0  0  0999 V2000
   -5.2165    0.2383    0.0000 C   0  0  0  0  0  0  0  0  0  0  0  0
   -3.8059    0.7485    0.0000 C   0  0  0  0  0  0  0  0  0  0  0  0
   -2.6587   -0.2179    0.0000 C   0  0  0  0  0  0  0  0  0  0  0  0
   -2.9221   -1.6946    0.0000 O   0  0  0  0  0  0  0  0  0  0  0  0
   -1.2482    0.2923    0.0000 O   0  0  0  0  0  0  0  0  0  0  0  0
   -0.1010   -0.6741    0.0000 C   0  0  0  0  0  0  0  0  0  0  0  0
    1.3095   -0.1639    0.0000 N   0  0  0  0  0  0  0  0  0  0  0  0
    2.5514   -1.0051    0.0000 C   0  0  0  0  0  0  0  0  0  0  0  0
    2.6008   -2.5043    0.0000 O   0  0  0  0  0  0  0  0  0  0  0  0
    3.7353   -0.0839    0.0000 C   0  0  0  0  0  0  0  0  0  0  0  0
    3.2250    1.3266    0.0000 C   0  0  0  0  0  0  0  0  0  0  0  0
    1.7258    1.2772    0.0000 C   0  0  0  0  0  0  0  0  0  0  0  0
    0.8046    2.4610    0.0000 O   0  0  0  0  0  0  0  0  0  0  0  0
  1  2  1  0
  2  3  1  0
  3  4  2  0
  3  5  1  0
  5  6  1  0
  6  7  1  0
  7  8  1  0
  7 12  1  0
  8  9  2  0
  8 10  1  0
 10 11  2  0
 11 12  1  0
 12 13  2  0
M  END
>  <s_m_entry_id>  (17) 
126

>  <s_m_entry_name>  (17) 
SIM_Broad_MProResults_ligprep.126

>  <Mol2_MolInfo_Name>  (17) 
11438

>  <Mol2_MolInfo_Type>  (17) 
SMALL

>  <Mol2_MolInfo_Charge>  (17) 
USER_CHARGES

>  <Mol2_Substructures>  (17) 
     1 UNK         1 GROUP             0       ****    0 ROOT    

>  <Name>  (17) 
11438

>  <s_m_Source_Path>  (17) 
/home/jgilaber/drug_learning/drug_learning/datasets/SARS2

>  <s_m_Source_File>  (17) 
SIM_Broad_MProResults_ligprep.sd

>  <i_m_Source_File_Index>  (17) 
126

>  <s_m_subgroup_title>  (17) 
SIM_Broad_MProResults_ligprep

>  <s_m_subgroupid>  (17) 
SIM_Broad_MProResults_ligprep

>  <b_m_subgroup_collapsed>  (17) 
0

$$$$
12207
     RDKit          2D

 25 28  0  0  1  0  0  0  0  0999 V2000
   -6.7334    1.3029    0.0000 O   0  0  0  0  0  0  0  0  0  0  0  0
   -6.5610   -0.1871    0.0000 N   0  0  0  0  0  0  0  0  0  0  0  0
   -7.7653   -1.0815    0.0000 O   0  0  0  0  0  0  0  0  0  0  0  0
   -5.1844   -0.7829    0.0000 C   0  0  0  0  0  0  0  0  0  0  0  0
   -4.8572   -2.2468    0.0000 C   0  0  0  0  0  0  0  0  0  0  0  0
   -3.3639   -2.3880    0.0000 N   0  0  0  0  0  0  0  0  0  0  0  0
   -2.7681   -1.0113    0.0000 C   0  0  0  0  0  0  0  0  0  0  0  0
   -1.3042   -0.6842    0.0000 S   0  0  0  0  0  0  0  0  0  0  0  0
   -0.8556    0.7472    0.0000 C   0  0  0  0  0  0  0  0  0  0  0  0
   -1.7500    1.9514    0.0000 N   0  0  0  0  0  0  0  0  0  0  0  0
   -0.8810    3.1741    0.0000 N   0  0  0  0  0  0  0  0  0  0  0  0
    0.5503    2.7255    0.0000 C   0  0  0  0  0  0  0  0  0  0  0  0
    1.7546    3.6198    0.0000 O   0  0  0  0  0  0  0  0  0  0  0  0
    0.5660    1.2256    0.0000 N   0  0  0  0  0  0  0  0  0  0  0  0
    1.7887    0.3567    0.0000 C   0  0  0  0  0  0  0  0  0  0  0  0
    1.6475   -1.1367    0.0000 C   0  0  0  0  0  0  0  0  0  0  0  0
    2.8702   -2.0056    0.0000 C   0  0  0  0  0  0  0  0  0  0  0  0
    4.2340   -1.3812    0.0000 C   0  0  0  0  0  0  0  0  0  0  0  0
    5.4567   -2.2502    0.0000 O   0  0  0  0  0  0  0  0  0  0  0  0
    6.8206   -1.6258    0.0000 C   0  0  0  0  0  0  0  0  0  0  0  0
    6.9618   -0.1324    0.0000 C   0  0  0  0  0  0  0  0  0  0  0  0
    5.7391    0.7365    0.0000 O   0  0  0  0  0  0  0  0  0  0  0  0
    4.3752    0.1121    0.0000 C   0  0  0  0  0  0  0  0  0  0  0  0
    3.1526    0.9811    0.0000 C   0  0  0  0  0  0  0  0  0  0  0  0
   -3.8933   -0.0194    0.0000 S   0  0  0  0  0  0  0  0  0  0  0  0
  1  2  1  0
  2  3  2  0
  2  4  1  0
  4  5  2  0
  4 25  1  0
  5  6  1  0
  6  7  2  0
  7  8  1  0
  7 25  1  0
  8  9  1  0
  9 10  2  0
  9 14  1  0
 10 11  1  0
 11 12  1  0
 12 13  2  0
 12 14  1  0
 14 15  1  0
 15 16  2  0
 15 24  1  0
 16 17  1  0
 17 18  2  0
 18 19  1  0
 18 23  1  0
 19 20  1  0
 20 21  1  0
 21 22  1  0
 22 23  1  0
 23 24  2  0
M  CHG  2   1  -1   2   1
M  END
>  <s_m_entry_id>  (18) 
153

>  <s_m_entry_name>  (18) 
SIM_Broad_MProResults_ligprep.153

>  <Mol2_MolInfo_Name>  (18) 
12207

>  <Mol2_MolInfo_Type>  (18) 
SMALL

>  <Mol2_MolInfo_Charge>  (18) 
USER_CHARGES

>  <Mol2_Substructures>  (18) 
     1 UNK         1 GROUP             0       ****    0 ROOT    

>  <Name>  (18) 
12207

>  <s_m_Source_Path>  (18) 
/home/jgilaber/drug_learning/drug_learning/datasets/SARS2

>  <s_m_Source_File>  (18) 
SIM_Broad_MProResults_ligprep.sd

>  <i_m_Source_File_Index>  (18) 
153

>  <s_m_subgroup_title>  (18) 
SIM_Broad_MProResults_ligprep

>  <s_m_subgroupid>  (18) 
SIM_Broad_MProResults_ligprep

>  <b_m_subgroup_collapsed>  (18) 
0

$$$$
8432
     RDKit          2D

 11 11  0  0  1  0  0  0  0  0999 V2000
   -2.5981   -1.2273    0.0000 O   0  0  0  0  0  0  0  0  0  0  0  0
   -1.2990   -0.4773    0.0000 C   0  0  0  0  0  0  0  0  0  0  0  0
   -1.2990    1.0227    0.0000 C   0  0  0  0  0  0  0  0  0  0  0  0
   -2.5981    1.7727    0.0000 I   0  0  0  0  0  0  0  0  0  0  0  0
   -0.0000    1.7727    0.0000 C   0  0  0  0  0  0  0  0  0  0  0  0
    1.2990    1.0227    0.0000 C   0  0  0  0  0  0  0  0  0  0  0  0
    2.5981    1.7727    0.0000 I   0  0  0  0  0  0  0  0  0  0  0  0
    1.2990   -0.4773    0.0000 C   0  0  0  0  0  0  0  0  0  0  0  0
    2.5981   -1.2273    0.0000 O   0  0  0  0  0  0  0  0  0  0  0  0
    0.0000   -1.2273    0.0000 C   0  0  0  0  0  0  0  0  0  0  0  0
    0.0000   -2.7273    0.0000 I   0  0  0  0  0  0  0  0  0  0  0  0
  1  2  1  0
  2  3  2  0
  2 10  1  0
  3  4  1  0
  3  5  1  0
  5  6  2  0
  6  7  1  0
  6  8  1  0
  8  9  1  0
  8 10  2  0
 10 11  1  0
M  CHG  1   1  -1
M  END
>  <s_m_entry_id>  (19) 
285

>  <s_m_entry_name>  (19) 
SIM_Broad_MProResults_ligprep.285

>  <Mol2_MolInfo_Name>  (19) 
8432

>  <Mol2_MolInfo_Type>  (19) 
SMALL

>  <Mol2_MolInfo_Charge>  (19) 
USER_CHARGES

>  <Mol2_Substructures>  (19) 
     1 UNK         1 GROUP             0       ****    0 ROOT    

>  <Name>  (19) 
8432

>  <s_m_Source_Path>  (19) 
/home/jgilaber/drug_learning/drug_learning/datasets/SARS2

>  <s_m_Source_File>  (19) 
SIM_Broad_MProResults_ligprep.sd

>  <i_m_Source_File_Index>  (19) 
285

>  <s_m_subgroup_title>  (19) 
SIM_Broad_MProResults_ligprep

>  <s_m_subgroupid>  (19) 
SIM_Broad_MProResults_ligprep

>  <b_m_subgroup_collapsed>  (19) 
0

$$$$
11508
     RDKit          2D

 23 25  0  0  1  0  0  0  0  0999 V2000
   -0.6622    2.7031    0.0000 O   0  0  0  0  0  0  0  0  0  0  0  0
    0.2554    1.5165    0.0000 C   0  0  0  0  0  0  0  0  0  0  0  0
   -0.3136    0.1285    0.0000 C   0  0  0  0  0  0  0  0  0  0  0  0
    0.6040   -1.0581    0.0000 O   0  0  0  0  0  0  0  0  0  0  0  0
    2.0904   -0.8569    0.0000 C   0  0  0  0  0  0  0  0  0  0  0  0
    3.0079   -2.0435    0.0000 C   0  0  0  0  0  0  0  0  0  0  0  0
    4.4944   -1.8423    0.0000 C   0  0  0  0  0  0  0  0  0  0  0  0
    5.4119   -3.0289    0.0000 O   0  0  0  0  0  0  0  0  0  0  0  0
    5.0633   -0.4543    0.0000 C   0  0  0  0  0  0  0  0  0  0  0  0
    4.1457    0.7323    0.0000 C   0  0  0  0  0  0  0  0  0  0  0  0
    4.7147    2.1203    0.0000 O   0  0  0  0  0  0  0  0  0  0  0  0
    2.6593    0.5311    0.0000 C   0  0  0  0  0  0  0  0  0  0  0  0
    1.7418    1.7177    0.0000 C   0  0  0  0  0  0  0  0  0  0  0  0
    2.3107    3.1056    0.0000 O   0  0  0  0  0  0  0  0  0  0  0  0
   -1.8000   -0.0727    0.0000 C   0  0  0  0  0  0  0  0  0  0  0  0
   -2.7175    1.1139    0.0000 C   0  0  0  0  0  0  0  0  0  0  0  0
   -4.2040    0.9127    0.0000 C   0  0  0  0  0  0  0  0  0  0  0  0
   -5.1215    2.0993    0.0000 O   0  0  0  0  0  0  0  0  0  0  0  0
   -4.7729   -0.4753    0.0000 C   0  0  0  0  0  0  0  0  0  0  0  0
   -6.2593   -0.6765    0.0000 O   0  0  0  0  0  0  0  0  0  0  0  0
   -3.8553   -1.6619    0.0000 C   0  0  0  0  0  0  0  0  0  0  0  0
   -4.4243   -3.0499    0.0000 O   0  0  0  0  0  0  0  0  0  0  0  0
   -2.3689   -1.4607    0.0000 C   0  0  0  0  0  0  0  0  0  0  0  0
  1  2  1  0
  2  3  2  0
  2 13  1  0
  3  4  1  0
  3 15  1  0
  4  5  1  0
  5  6  1  0
  5 12  2  0
  6  7  2  0
  7  8  1  0
  7  9  1  0
  9 10  2  0
 10 11  1  0
 10 12  1  0
 12 13  1  0
 13 14  2  0
 15 16  2  0
 15 23  1  0
 16 17  1  0
 17 18  1  0
 17 19  2  0
 19 20  1  0
 19 21  1  0
 21 22  1  0
 21 23  2  0
M  END
>  <s_m_entry_id>  (20) 
130

>  <s_m_entry_name>  (20) 
SIM_Broad_MProResults_ligprep.130

>  <Mol2_MolInfo_Name>  (20) 
11508

>  <Mol2_MolInfo_Type>  (20) 
SMALL

>  <Mol2_MolInfo_Charge>  (20) 
USER_CHARGES

>  <Mol2_Substructures>  (20) 
     1 UNK         1 GROUP             0       ****    0 ROOT    

>  <Name>  (20) 
11508

>  <s_m_Source_Path>  (20) 
/home/jgilaber/drug_learning/drug_learning/datasets/SARS2

>  <s_m_Source_File>  (20) 
SIM_Broad_MProResults_ligprep.sd

>  <i_m_Source_File_Index>  (20) 
130

>  <s_m_subgroup_title>  (20) 
SIM_Broad_MProResults_ligprep

>  <s_m_subgroupid>  (20) 
SIM_Broad_MProResults_ligprep

>  <b_m_subgroup_collapsed>  (20) 
0

$$$$
11794
     RDKit          2D

 14 14  0  0  1  0  0  0  0  0999 V2000
    2.5981   -2.5714    0.0000 N   0  0  0  0  0  0  0  0  0  0  0  0
    1.2990   -1.8214    0.0000 C   0  0  0  0  0  0  0  0  0  0  0  0
   -0.0000   -2.5714    0.0000 N   0  0  0  0  0  0  0  0  0  0  0  0
   -1.2990   -1.8214    0.0000 C   0  0  0  0  0  0  0  0  0  0  0  0
   -2.5981   -2.5714    0.0000 N   0  0  0  0  0  0  0  0  0  0  0  0
   -1.2990   -0.3214    0.0000 C   0  0  0  0  0  0  0  0  0  0  0  0
   -2.5981    0.4286    0.0000 S   0  0  0  0  0  0  0  0  0  0  0  0
   -2.5981    1.9286    0.0000 C   0  0  0  0  0  0  0  0  0  0  0  0
   -2.5981    3.4286    0.0000 N   0  0  0  0  0  0  0  0  0  0  0  0
    0.0000    0.4286    0.0000 C   0  0  0  0  0  0  0  0  0  0  0  0
    1.2990   -0.3214    0.0000 C   0  0  0  0  0  0  0  0  0  0  0  0
    2.5981    0.4286    0.0000 S   0  0  0  0  0  0  0  0  0  0  0  0
    2.5981    1.9286    0.0000 C   0  0  0  0  0  0  0  0  0  0  0  0
    2.5981    3.4286    0.0000 N   0  0  0  0  0  0  0  0  0  0  0  0
  1  2  1  0
  2  3  2  0
  2 11  1  0
  3  4  1  0
  4  5  1  0
  4  6  2  0
  6  7  1  0
  6 10  1  0
  7  8  1  0
  8  9  3  0
 10 11  2  0
 11 12  1  0
 12 13  1  0
 13 14  3  0
M  END
>  <s_m_entry_id>  (21) 
137

>  <s_m_entry_name>  (21) 
SIM_Broad_MProResults_ligprep.137

>  <Mol2_MolInfo_Name>  (21) 
11794

>  <Mol2_MolInfo_Type>  (21) 
SMALL

>  <Mol2_MolInfo_Charge>  (21) 
USER_CHARGES

>  <Mol2_Substructures>  (21) 
     1 UNK         1 GROUP             0       ****    0 ROOT    

>  <Name>  (21) 
11794

>  <s_m_Source_Path>  (21) 
/home/jgilaber/drug_learning/drug_learning/datasets/SARS2

>  <s_m_Source_File>  (21) 
SIM_Broad_MProResults_ligprep.sd

>  <i_m_Source_File_Index>  (21) 
137

>  <s_m_subgroup_title>  (21) 
SIM_Broad_MProResults_ligprep

>  <s_m_subgroupid>  (21) 
SIM_Broad_MProResults_ligprep

>  <b_m_subgroup_collapsed>  (21) 
0

$$$$
11292
     RDKit          2D

  9  8  0  0  1  0  0  0  0  0999 V2000
   -2.2500    1.5104    0.0000 O   0  0  0  0  0  0  0  0  0  0  0  0
   -1.5000    0.2113    0.0000 C   0  0  0  0  0  0  0  0  0  0  0  0
    0.0000    0.2113    0.0000 C   0  0  0  0  0  0  0  0  0  0  0  0
    0.0000    1.7113    0.0000 Br  0  0  0  0  0  0  0  0  0  0  0  0
    1.5000    0.2113    0.0000 C   0  0  0  0  0  0  0  0  0  0  0  0
    2.2500    1.5104    0.0000 O   0  0  0  0  0  0  0  0  0  0  0  0
   -0.0000   -1.2887    0.0000 N   0  0  0  0  0  0  0  0  0  0  0  0
   -1.2990   -2.0387    0.0000 O   0  0  0  0  0  0  0  0  0  0  0  0
    1.2990   -2.0387    0.0000 O   0  0  0  0  0  0  0  0  0  0  0  0
  1  2  1  0
  2  3  1  0
  3  4  1  0
  3  5  1  0
  3  7  1  0
  5  6  1  0
  7  8  2  0
  7  9  1  0
M  CHG  2   7   1   9  -1
M  END
>  <s_m_entry_id>  (22) 
114

>  <s_m_entry_name>  (22) 
SIM_Broad_MProResults_ligprep.114

>  <Mol2_MolInfo_Name>  (22) 
11292

>  <Mol2_MolInfo_Type>  (22) 
SMALL

>  <Mol2_MolInfo_Charge>  (22) 
USER_CHARGES

>  <Mol2_Substructures>  (22) 
     1 UNK         1 GROUP             0       ****    0 ROOT    

>  <Name>  (22) 
11292

>  <s_m_Source_Path>  (22) 
/home/jgilaber/drug_learning/drug_learning/datasets/SARS2

>  <s_m_Source_File>  (22) 
SIM_Broad_MProResults_ligprep.sd

>  <i_m_Source_File_Index>  (22) 
114

>  <s_m_subgroup_title>  (22) 
SIM_Broad_MProResults_ligprep

>  <s_m_subgroupid>  (22) 
SIM_Broad_MProResults_ligprep

>  <b_m_subgroup_collapsed>  (22) 
0

$$$$
11784
     RDKit          2D

 24 25  0  0  1  0  0  0  0  0999 V2000
    7.7942   -1.3750    0.0000 O   0  0  0  0  0  0  0  0  0  0  0  0
    6.4952   -0.6250    0.0000 C   0  0  0  0  0  0  0  0  0  0  0  0
    5.1962   -1.3750    0.0000 C   0  0  0  0  0  0  0  0  0  0  0  0
    3.8971   -0.6250    0.0000 C   0  0  0  0  0  0  0  0  0  0  0  0
    2.5981   -1.3750    0.0000 C   0  0  0  0  0  0  0  0  0  0  0  0
    1.2990   -0.6250    0.0000 N   0  0  0  0  0  0  0  0  0  0  0  0
    0.0000   -1.3750    0.0000 C   0  0  0  0  0  0  0  0  0  0  0  0
    0.0000   -2.8750    0.0000 S   0  0  0  0  0  0  0  0  0  0  0  0
   -1.2990   -0.6250    0.0000 C   0  0  0  0  0  0  0  0  0  0  0  0
   -2.5981   -1.3750    0.0000 C   0  0  0  0  0  0  0  0  0  0  0  0
   -3.8971   -0.6250    0.0000 C   0  0  0  0  0  0  0  0  0  0  0  0
   -3.8971    0.8750    0.0000 C   0  0  0  0  0  0  0  0  0  0  0  0
   -5.1962    1.6250    0.0000 C   0  0  0  0  0  0  0  0  0  0  0  0
   -5.1962    3.1250    0.0000 O   0  0  0  0  0  0  0  0  0  0  0  0
   -6.4952    0.8750    0.0000 C   0  0  0  0  0  0  0  0  0  0  0  0
   -7.7942    1.6250    0.0000 O   0  0  0  0  0  0  0  0  0  0  0  0
   -6.4952   -0.6250    0.0000 C   0  0  0  0  0  0  0  0  0  0  0  0
   -7.7942   -1.3750    0.0000 Br  0  0  0  0  0  0  0  0  0  0  0  0
   -5.1962   -1.3750    0.0000 C   0  0  0  0  0  0  0  0  0  0  0  0
    3.8971    0.8750    0.0000 C   0  0  0  0  0  0  0  0  0  0  0  0
    5.1962    1.6250    0.0000 C   0  0  0  0  0  0  0  0  0  0  0  0
    5.1962    3.1250    0.0000 O   0  0  0  0  0  0  0  0  0  0  0  0
    6.4952    0.8750    0.0000 C   0  0  0  0  0  0  0  0  0  0  0  0
    7.7942    1.6250    0.0000 O   0  0  0  0  0  0  0  0  0  0  0  0
  1  2  1  0
  2  3  2  0
  2 23  1  0
  3  4  1  0
  4  5  1  0
  4 20  2  0
  5  6  1  0
  6  7  1  0
  7  8  2  0
  7  9  1  0
  9 10  2  0
 10 11  1  0
 11 12  2  0
 11 19  1  0
 12 13  1  0
 13 14  1  0
 13 15  2  0
 15 16  1  0
 15 17  1  0
 17 18  1  0
 17 19  2  0
 20 21  1  0
 21 22  1  0
 21 23  2  0
 23 24  1  0
M  END
>  <s_m_entry_id>  (23) 
136

>  <s_m_entry_name>  (23) 
SIM_Broad_MProResults_ligprep.136

>  <Mol2_MolInfo_Name>  (23) 
11784

>  <Mol2_MolInfo_Type>  (23) 
SMALL

>  <Mol2_MolInfo_Charge>  (23) 
USER_CHARGES

>  <Mol2_Substructures>  (23) 
     1 UNK         1 GROUP             0       ****    0 ROOT    

>  <Name>  (23) 
11784

>  <s_m_Source_Path>  (23) 
/home/jgilaber/drug_learning/drug_learning/datasets/SARS2

>  <s_m_Source_File>  (23) 
SIM_Broad_MProResults_ligprep.sd

>  <i_m_Source_File_Index>  (23) 
136

>  <s_m_subgroup_title>  (23) 
SIM_Broad_MProResults_ligprep

>  <s_m_subgroupid>  (23) 
SIM_Broad_MProResults_ligprep

>  <b_m_subgroup_collapsed>  (23) 
0

$$$$
11418
     RDKit          2D

 24 27  0  0  1  0  0  0  0  0999 V2000
   -2.9193    3.4518    0.0000 O   0  0  0  0  0  0  0  0  0  0  0  0
   -3.2894    1.9982    0.0000 C   0  0  0  0  0  0  0  0  0  0  0  0
   -4.7333    1.5918    0.0000 C   0  0  0  0  0  0  0  0  0  0  0  0
   -5.1033    0.1381    0.0000 C   0  0  0  0  0  0  0  0  0  0  0  0
   -4.0294   -0.9091    0.0000 C   0  0  0  0  0  0  0  0  0  0  0  0
   -4.3994   -2.3628    0.0000 C   0  0  0  0  0  0  0  0  0  0  0  0
   -3.3255   -3.4100    0.0000 C   0  0  0  0  0  0  0  0  0  0  0  0
   -1.8816   -3.0037    0.0000 C   0  0  0  0  0  0  0  0  0  0  0  0
   -1.5116   -1.5500    0.0000 C   0  0  0  0  0  0  0  0  0  0  0  0
   -2.5855   -0.5028    0.0000 C   0  0  0  0  0  0  0  0  0  0  0  0
   -2.2155    0.9509    0.0000 C   0  0  0  0  0  0  0  0  0  0  0  0
   -0.7716    1.3573    0.0000 S   0  0  0  0  0  0  0  0  0  0  0  0
    0.3023    0.3100    0.0000 S   0  0  0  0  0  0  0  0  0  0  0  0
    1.7462    0.7164    0.0000 C   0  0  0  0  0  0  0  0  0  0  0  0
    2.1162    2.1700    0.0000 C   0  0  0  0  0  0  0  0  0  0  0  0
    1.0424    3.2173    0.0000 O   0  0  0  0  0  0  0  0  0  0  0  0
    3.5601    2.5764    0.0000 C   0  0  0  0  0  0  0  0  0  0  0  0
    4.6340    1.5291    0.0000 C   0  0  0  0  0  0  0  0  0  0  0  0
    4.2640    0.0755    0.0000 C   0  0  0  0  0  0  0  0  0  0  0  0
    5.3379   -0.9718    0.0000 C   0  0  0  0  0  0  0  0  0  0  0  0
    4.9679   -2.4254    0.0000 C   0  0  0  0  0  0  0  0  0  0  0  0
    3.5240   -2.8318    0.0000 C   0  0  0  0  0  0  0  0  0  0  0  0
    2.4501   -1.7845    0.0000 C   0  0  0  0  0  0  0  0  0  0  0  0
    2.8201   -0.3309    0.0000 C   0  0  0  0  0  0  0  0  0  0  0  0
  1  2  1  0
  2  3  2  0
  2 11  1  0
  3  4  1  0
  4  5  2  0
  5  6  1  0
  5 10  1  0
  6  7  2  0
  7  8  1  0
  8  9  2  0
  9 10  1  0
 10 11  2  0
 11 12  1  0
 12 13  1  0
 13 14  1  0
 14 15  2  0
 14 24  1  0
 15 16  1  0
 15 17  1  0
 17 18  2  0
 18 19  1  0
 19 20  1  0
 19 24  2  0
 20 21  2  0
 21 22  1  0
 22 23  2  0
 23 24  1  0
M  END
>  <s_m_entry_id>  (24) 
123

>  <s_m_entry_name>  (24) 
SIM_Broad_MProResults_ligprep.123

>  <Mol2_MolInfo_Name>  (24) 
11418

>  <Mol2_MolInfo_Type>  (24) 
SMALL

>  <Mol2_MolInfo_Charge>  (24) 
USER_CHARGES

>  <Mol2_Substructures>  (24) 
     1 UNK         1 GROUP             0       ****    0 ROOT    

>  <Name>  (24) 
11418

>  <s_m_Source_Path>  (24) 
/home/jgilaber/drug_learning/drug_learning/datasets/SARS2

>  <s_m_Source_File>  (24) 
SIM_Broad_MProResults_ligprep.sd

>  <i_m_Source_File_Index>  (24) 
123

>  <s_m_subgroup_title>  (24) 
SIM_Broad_MProResults_ligprep

>  <s_m_subgroupid>  (24) 
SIM_Broad_MProResults_ligprep

>  <b_m_subgroup_collapsed>  (24) 
0

$$$$
617
     RDKit          2D

 20 23  0  0  1  0  0  0  0  0999 V2000
   -3.0808    3.2080    0.0000 C   0  0  0  0  0  0  0  0  0  0  0  0
   -2.8964    1.7194    0.0000 N   0  0  0  0  0  0  0  0  0  0  0  0
   -4.0934    0.8154    0.0000 C   0  0  0  0  0  0  0  0  0  0  0  0
   -3.9090   -0.6732    0.0000 C   0  0  0  0  0  0  0  0  0  0  0  0
   -2.5276   -1.2578    0.0000 C   0  0  0  0  0  0  0  0  0  0  0  0
   -2.3431   -2.7464    0.0000 C   0  0  0  0  0  0  0  0  0  0  0  0
   -0.9617   -3.3310    0.0000 C   0  0  0  0  0  0  0  0  0  0  0  0
    0.2352   -2.4270    0.0000 C   0  0  0  0  0  0  0  0  0  0  0  0
    0.0508   -0.9384    0.0000 C   0  0  0  0  0  0  0  0  0  0  0  0
   -1.3306   -0.3538    0.0000 C   0  0  0  0  0  0  0  0  0  0  0  0
   -1.5150    1.1348    0.0000 C   0  0  0  0  0  0  0  0  0  0  0  0
   -0.3180    2.0389    0.0000 C   0  0  0  0  0  0  0  0  0  0  0  0
    1.0633    1.4543    0.0000 C   0  0  0  0  0  0  0  0  0  0  0  0
    2.2603    2.3583    0.0000 C   0  0  0  0  0  0  0  0  0  0  0  0
    3.6417    1.7737    0.0000 C   0  0  0  0  0  0  0  0  0  0  0  0
    3.8261    0.2851    0.0000 C   0  0  0  0  0  0  0  0  0  0  0  0
    5.2075   -0.2995    0.0000 O   0  0  0  0  0  0  0  0  0  0  0  0
    2.6292   -0.6189    0.0000 C   0  0  0  0  0  0  0  0  0  0  0  0
    2.8136   -2.1076    0.0000 O   0  0  0  0  0  0  0  0  0  0  0  0
    1.2478   -0.0343    0.0000 C   0  0  0  0  0  0  0  0  0  0  0  0
  1  2  1  0
  2  3  1  0
  2 11  1  0
  3  4  1  0
  4  5  1  0
  5  6  1  0
  5 10  2  0
  6  7  2  0
  7  8  1  0
  8  9  2  0
  9 10  1  0
  9 20  1  0
 10 11  1  0
 11 12  1  0
 12 13  1  0
 13 14  1  0
 13 20  2  0
 14 15  2  0
 15 16  1  0
 16 17  1  0
 16 18  2  0
 18 19  1  0
 18 20  1  0
M  CHG  1   2   1
M  END
>  <s_m_entry_id>  (25) 
183

>  <s_m_entry_name>  (25) 
SIM_Broad_MProResults_ligprep.183

>  <Mol2_MolInfo_Name>  (25) 
617

>  <Mol2_MolInfo_Type>  (25) 
SMALL

>  <Mol2_MolInfo_Charge>  (25) 
USER_CHARGES

>  <Mol2_Substructures>  (25) 
     1 ****        1 GROUP             0       ****    0 ROOT    

>  <Name>  (25) 
617

>  <s_m_Source_Path>  (25) 
/home/jgilaber/drug_learning/drug_learning/datasets/SARS2

>  <s_m_Source_File>  (25) 
SIM_Broad_MProResults_ligprep.sd

>  <i_m_Source_File_Index>  (25) 
183

>  <s_m_subgroup_title>  (25) 
SIM_Broad_MProResults_ligprep

>  <s_m_subgroupid>  (25) 
SIM_Broad_MProResults_ligprep

>  <b_m_subgroup_collapsed>  (25) 
0

$$$$
11456
     RDKit          2D

 25 27  0  0  1  0  0  0  0  0999 V2000
   -3.4629    1.6809    0.0000 C   0  0  0  0  0  0  0  0  0  0  0  0
   -2.2616    0.7827    0.0000 C   0  0  0  0  0  0  0  0  0  0  0  0
   -0.8831    1.3740    0.0000 C   0  0  0  0  0  0  0  0  0  0  0  0
   -2.4389   -0.7068    0.0000 N   0  0  0  0  0  0  0  0  0  0  0  0
   -1.2375   -1.6050    0.0000 C   0  0  0  0  0  0  0  0  0  0  0  0
    0.1410   -1.0138    0.0000 C   0  0  0  0  0  0  0  0  0  0  0  0
    1.3423   -1.9120    0.0000 C   0  0  0  0  0  0  0  0  0  0  0  0
    1.1651   -3.4015    0.0000 O   0  0  0  0  0  0  0  0  0  0  0  0
    2.7209   -1.3207    0.0000 C   0  0  0  0  0  0  0  0  0  0  0  0
    3.9222   -2.2190    0.0000 C   0  0  0  0  0  0  0  0  0  0  0  0
    5.3008   -1.6277    0.0000 C   0  0  0  0  0  0  0  0  0  0  0  0
    5.4780   -0.1382    0.0000 C   0  0  0  0  0  0  0  0  0  0  0  0
    6.8566    0.4530    0.0000 C   0  0  0  0  0  0  0  0  0  0  0  0
    7.0338    1.9425    0.0000 C   0  0  0  0  0  0  0  0  0  0  0  0
    5.8325    2.8407    0.0000 C   0  0  0  0  0  0  0  0  0  0  0  0
    4.4539    2.2495    0.0000 C   0  0  0  0  0  0  0  0  0  0  0  0
    4.2767    0.7600    0.0000 C   0  0  0  0  0  0  0  0  0  0  0  0
    2.8981    0.1687    0.0000 C   0  0  0  0  0  0  0  0  0  0  0  0
   -3.8174   -1.2980    0.0000 C   0  0  0  0  0  0  0  0  0  0  0  0
   -5.0187   -0.3998    0.0000 C   0  0  0  0  0  0  0  0  0  0  0  0
   -4.8415    1.0897    0.0000 C   0  0  0  0  0  0  0  0  0  0  0  0
   -6.0428    1.9879    0.0000 C   0  0  0  0  0  0  0  0  0  0  0  0
   -7.4214    1.3967    0.0000 C   0  0  0  0  0  0  0  0  0  0  0  0
   -7.5986   -0.0928    0.0000 C   0  0  0  0  0  0  0  0  0  0  0  0
   -6.3973   -0.9911    0.0000 C   0  0  0  0  0  0  0  0  0  0  0  0
  1  2  1  0
  2  3  1  0
  2  4  1  0
  4  5  1  0
  4 19  1  0
  5  6  1  0
  6  7  1  0
  7  8  2  0
  7  9  1  0
  9 10  2  0
  9 18  1  0
 10 11  1  0
 11 12  2  0
 12 13  1  0
 12 17  1  0
 13 14  2  0
 14 15  1  0
 15 16  2  0
 16 17  1  0
 17 18  2  0
 19 20  1  0
 20 21  2  0
 20 25  1  0
 21 22  1  0
 22 23  2  0
 23 24  1  0
 24 25  2  0
M  CHG  1   4   1
M  END
>  <s_m_entry_id>  (26) 
128

>  <s_m_entry_name>  (26) 
SIM_Broad_MProResults_ligprep.128

>  <Mol2_MolInfo_Name>  (26) 
11456

>  <Mol2_MolInfo_Type>  (26) 
SMALL

>  <Mol2_MolInfo_Charge>  (26) 
USER_CHARGES

>  <Mol2_Substructures>  (26) 
     1 UNK         1 GROUP             0       ****    0 ROOT    

>  <Name>  (26) 
11456

>  <s_m_Source_Path>  (26) 
/home/jgilaber/drug_learning/drug_learning/datasets/SARS2

>  <s_m_Source_File>  (26) 
SIM_Broad_MProResults_ligprep.sd

>  <i_m_Source_File_Index>  (26) 
128

>  <s_m_subgroup_title>  (26) 
SIM_Broad_MProResults_ligprep

>  <s_m_subgroupid>  (26) 
SIM_Broad_MProResults_ligprep

>  <b_m_subgroup_collapsed>  (26) 
0

$$$$
882
     RDKit          2D

 54 59  0  0  1  0  0  0  0  0999 V2000
  -11.8065   -0.5031    0.0000 C   0  0  0  0  0  0  0  0  0  0  0  0
  -10.3417   -0.1802    0.0000 O   0  0  0  0  0  0  0  0  0  0  0  0
   -9.8889    1.2499    0.0000 C   0  0  0  0  0  0  0  0  0  0  0  0
  -10.9010    2.3570    0.0000 C   0  0  0  0  0  0  0  0  0  0  0  0
  -10.4482    3.7870    0.0000 C   0  0  0  0  0  0  0  0  0  0  0  0
   -8.9834    4.1099    0.0000 C   0  0  0  0  0  0  0  0  0  0  0  0
   -7.9713    3.0028    0.0000 C   0  0  0  0  0  0  0  0  0  0  0  0
   -6.5065    3.3257    0.0000 C   0  0  0  0  0  0  0  0  0  0  0  0
   -6.0537    4.7557    0.0000 O   0  0  0  0  0  0  0  0  0  0  0  0
   -5.4944    2.2186    0.0000 C   0  0  0  0  0  0  0  0  0  0  0  0
   -4.0296    2.5415    0.0000 C   0  0  0  0  0  0  0  0  0  0  0  0
   -3.5768    3.9715    0.0000 O   0  0  0  0  0  0  0  0  0  0  0  0
   -3.0175    1.4343    0.0000 C   0  0  0  0  0  0  0  0  0  0  0  0
   -1.5527    1.7572    0.0000 C   0  0  0  0  0  0  0  0  0  0  0  0
   -0.5406    0.6501    0.0000 C   0  0  0  0  0  0  0  0  0  0  0  0
    0.3739    1.8390    0.0000 O   0  0  0  0  0  0  0  0  0  0  0  0
   -0.9934   -0.7799    0.0000 C   0  0  0  0  0  0  0  0  0  0  0  0
   -2.4582   -1.1028    0.0000 C   0  0  0  0  0  0  0  0  0  0  0  0
   -2.9110   -2.5329    0.0000 O   0  0  0  0  0  0  0  0  0  0  0  0
   -1.8990   -3.6400    0.0000 C   0  0  0  0  0  0  0  0  0  0  0  0
   -2.3517   -5.0700    0.0000 C   0  0  0  0  0  0  0  0  0  0  0  0
   -1.3397   -6.1772    0.0000 C   0  0  0  0  0  0  0  0  0  0  0  0
   -1.7924   -7.6072    0.0000 N   0  0  0  0  0  0  0  0  0  0  0  0
    0.1252   -5.8543    0.0000 C   0  0  0  0  0  0  0  0  0  0  0  0
    1.1372   -6.9614    0.0000 O   0  0  0  0  0  0  0  0  0  0  0  0
    0.5779   -4.4242    0.0000 C   0  0  0  0  0  0  0  0  0  0  0  0
    2.0428   -4.1013    0.0000 C   0  0  0  0  0  0  0  0  0  0  0  0
   -0.4341   -3.3171    0.0000 O   0  0  0  0  0  0  0  0  0  0  0  0
   -3.4703    0.0043    0.0000 C   0  0  0  0  0  0  0  0  0  0  0  0
   -4.9351   -0.3186    0.0000 C   0  0  0  0  0  0  0  0  0  0  0  0
   -5.3879   -1.7486    0.0000 O   0  0  0  0  0  0  0  0  0  0  0  0
   -5.9472    0.7885    0.0000 C   0  0  0  0  0  0  0  0  0  0  0  0
   -7.4120    0.4656    0.0000 C   0  0  0  0  0  0  0  0  0  0  0  0
   -7.8648   -0.9644    0.0000 O   0  0  0  0  0  0  0  0  0  0  0  0
   -8.4241    1.5728    0.0000 C   0  0  0  0  0  0  0  0  0  0  0  0
    0.7891   -0.0441    0.0000 C   0  0  0  0  0  0  0  0  0  0  0  0
    2.0551    0.7603    0.0000 N   0  0  0  0  0  0  0  0  0  0  0  0
    3.3848    0.0661    0.0000 N   0  0  0  0  0  0  0  0  0  0  0  0
    4.6508    0.8705    0.0000 C   0  0  0  0  0  0  0  0  0  0  0  0
    4.5872    2.3692    0.0000 O   0  0  0  0  0  0  0  0  0  0  0  0
    5.9805    0.1763    0.0000 C   0  0  0  0  0  0  0  0  0  0  0  0
    7.2466    0.9807    0.0000 C   0  0  0  0  0  0  0  0  0  0  0  0
    8.5763    0.2865    0.0000 C   0  0  0  0  0  0  0  0  0  0  0  0
    9.8423    1.0910    0.0000 C   0  0  0  0  0  0  0  0  0  0  0  0
   11.1720    0.3967    0.0000 C   0  0  0  0  0  0  0  0  0  0  0  0
   12.4381    1.2012    0.0000 N   0  0  0  0  0  0  0  0  0  0  0  0
   12.5314    2.6983    0.0000 C   0  0  0  0  0  0  0  0  0  0  0  0
   11.3751    3.6538    0.0000 O   0  0  0  0  0  0  0  0  0  0  0  0
   13.9841    3.0721    0.0000 C   0  0  0  0  0  0  0  0  0  0  0  0
   14.7885    1.8060    0.0000 C   0  0  0  0  0  0  0  0  0  0  0  0
   13.8330    0.6497    0.0000 C   0  0  0  0  0  0  0  0  0  0  0  0
   14.2068   -0.8029    0.0000 O   0  0  0  0  0  0  0  0  0  0  0  0
    0.8527   -1.5428    0.0000 C   0  0  0  0  0  0  0  0  0  0  0  0
    2.1824   -2.2370    0.0000 O   0  0  0  0  0  0  0  0  0  0  0  0
  1  2  1  0
  2  3  1  0
  3  4  2  0
  3 35  1  0
  4  5  1  0
  5  6  2  0
  6  7  1  0
  7  8  1  0
  7 35  2  0
  8  9  2  0
  8 10  1  0
 10 11  2  0
 10 32  1  0
 11 12  1  0
 11 13  1  0
 13 14  1  0
 13 29  2  0
 14 15  1  0
 15 16  1  0
 15 17  1  0
 15 36  1  0
 17 18  1  0
 18 19  1  0
 18 29  1  0
 19 20  1  0
 20 21  1  0
 20 28  1  0
 21 22  1  0
 22 23  1  0
 22 24  1  0
 24 25  1  0
 24 26  1  0
 26 27  1  0
 26 28  1  0
 29 30  1  0
 30 31  1  0
 30 32  2  0
 32 33  1  0
 33 34  2  0
 33 35  1  0
 36 37  2  0
 36 53  1  0
 37 38  1  0
 38 39  1  0
 39 40  2  0
 39 41  1  0
 41 42  1  0
 42 43  1  0
 43 44  1  0
 44 45  1  0
 45 46  1  0
 46 47  1  0
 46 51  1  0
 47 48  2  0
 47 49  1  0
 49 50  2  0
 50 51  1  0
 51 52  2  0
 53 54  1  0
M  CHG  1  23   1
M  END
>  <s_m_entry_id>  (27) 
185

>  <s_m_entry_name>  (27) 
SIM_Broad_MProResults_ligprep.185

>  <Mol2_MolInfo_Name>  (27) 
882

>  <Mol2_MolInfo_Type>  (27) 
SMALL

>  <Mol2_MolInfo_Charge>  (27) 
USER_CHARGES

>  <Mol2_Substructures>  (27) 
     1 ****        1 GROUP             0       ****    0 ROOT    

>  <Name>  (27) 
882

>  <s_m_Source_Path>  (27) 
/home/jgilaber/drug_learning/drug_learning/datasets/SARS2

>  <s_m_Source_File>  (27) 
SIM_Broad_MProResults_ligprep.sd

>  <i_m_Source_File_Index>  (27) 
185

>  <s_m_subgroup_title>  (27) 
SIM_Broad_MProResults_ligprep

>  <s_m_subgroupid>  (27) 
SIM_Broad_MProResults_ligprep

>  <b_m_subgroup_collapsed>  (27) 
0

$$$$
8437
     RDKit          2D

 13 14  0  0  1  0  0  0  0  0999 V2000
   -1.3365   -2.1389    0.0000 C   0  0  0  0  0  0  0  0  0  0  0  0
   -1.5862   -0.6598    0.0000 C   0  0  0  0  0  0  0  0  0  0  0  0
   -0.5363    0.4116    0.0000 C   0  0  0  0  0  0  0  0  0  0  0  0
   -1.2308    1.7411    0.0000 S   0  0  0  0  0  0  0  0  0  0  0  0
   -2.7099    1.4914    0.0000 S   0  0  0  0  0  0  0  0  0  0  0  0
   -2.9295    0.0076    0.0000 C   0  0  0  0  0  0  0  0  0  0  0  0
   -4.2590   -0.6869    0.0000 S   0  0  0  0  0  0  0  0  0  0  0  0
    0.9475    0.1919    0.0000 C   0  0  0  0  0  0  0  0  0  0  0  0
    1.4993   -1.2029    0.0000 C   0  0  0  0  0  0  0  0  0  0  0  0
    2.9831   -1.4225    0.0000 N   0  0  0  0  0  0  0  0  0  0  0  0
    3.9152   -0.2473    0.0000 C   0  0  0  0  0  0  0  0  0  0  0  0
    3.3635    1.1476    0.0000 C   0  0  0  0  0  0  0  0  0  0  0  0
    1.8796    1.3672    0.0000 N   0  0  0  0  0  0  0  0  0  0  0  0
  1  2  1  0
  2  3  2  0
  2  6  1  0
  3  4  1  0
  3  8  1  0
  4  5  1  0
  5  6  1  0
  6  7  2  0
  8  9  2  0
  8 13  1  0
  9 10  1  0
 10 11  2  0
 11 12  1  0
 12 13  2  0
M  END
>  <s_m_entry_id>  (28) 
230

>  <s_m_entry_name>  (28) 
SIM_Broad_MProResults_ligprep.230

>  <Mol2_MolInfo_Name>  (28) 
8437

>  <Mol2_MolInfo_Type>  (28) 
SMALL

>  <Mol2_MolInfo_Charge>  (28) 
USER_CHARGES

>  <Mol2_Substructures>  (28) 
     1 ****        1 GROUP             0       ****    0 ROOT    

>  <Name>  (28) 
8437

>  <s_m_Source_Path>  (28) 
/home/jgilaber/drug_learning/drug_learning/datasets/SARS2

>  <s_m_Source_File>  (28) 
SIM_Broad_MProResults_ligprep.sd

>  <i_m_Source_File_Index>  (28) 
230

>  <s_m_subgroup_title>  (28) 
SIM_Broad_MProResults_ligprep

>  <s_m_subgroupid>  (28) 
SIM_Broad_MProResults_ligprep

>  <b_m_subgroup_collapsed>  (28) 
0

$$$$
332
     RDKit          2D

 25 30  0  0  1  0  0  0  0  0999 V2000
    0.7176   -2.6845    0.0000 C   0  0  0  0  0  0  0  0  0  0  0  0
   -0.1960   -1.4948    0.0000 N   0  0  0  0  0  0  0  0  0  0  0  0
   -1.6831   -1.6912    0.0000 C   0  0  0  0  0  0  0  0  0  0  0  0
   -2.5967   -0.5016    0.0000 C   0  0  0  0  0  0  0  0  0  0  0  0
   -4.0838   -0.6979    0.0000 C   0  0  0  0  0  0  0  0  0  0  0  0
   -4.9329   -1.9345    0.0000 O   0  0  0  0  0  0  0  0  0  0  0  0
   -6.3713   -1.5090    0.0000 C   0  0  0  0  0  0  0  0  0  0  0  0
   -6.4112   -0.0095    0.0000 O   0  0  0  0  0  0  0  0  0  0  0  0
   -4.9974    0.4917    0.0000 C   0  0  0  0  0  0  0  0  0  0  0  0
   -4.4239    1.8778    0.0000 C   0  0  0  0  0  0  0  0  0  0  0  0
   -2.9368    2.0742    0.0000 C   0  0  0  0  0  0  0  0  0  0  0  0
   -2.0232    0.8845    0.0000 C   0  0  0  0  0  0  0  0  0  0  0  0
   -0.5361    1.0809    0.0000 C   0  0  0  0  0  0  0  0  0  0  0  0
    0.0373    2.4669    0.0000 C   0  0  0  0  0  0  0  0  0  0  0  0
    1.5244    2.6633    0.0000 C   0  0  0  0  0  0  0  0  0  0  0  0
    2.4381    1.4736    0.0000 C   0  0  0  0  0  0  0  0  0  0  0  0
    3.9251    1.6700    0.0000 C   0  0  0  0  0  0  0  0  0  0  0  0
    4.8388    0.4804    0.0000 C   0  0  0  0  0  0  0  0  0  0  0  0
    6.3342    0.3633    0.0000 O   0  0  0  0  0  0  0  0  0  0  0  0
    6.6849   -1.0951    0.0000 C   0  0  0  0  0  0  0  0  0  0  0  0
    5.4063   -1.8794    0.0000 O   0  0  0  0  0  0  0  0  0  0  0  0
    4.2653   -0.9057    0.0000 C   0  0  0  0  0  0  0  0  0  0  0  0
    2.7782   -1.1021    0.0000 C   0  0  0  0  0  0  0  0  0  0  0  0
    1.8646    0.0876    0.0000 C   0  0  0  0  0  0  0  0  0  0  0  0
    0.3775   -0.1088    0.0000 C   0  0  0  0  0  0  0  0  0  0  0  0
  1  2  1  0
  2  3  1  0
  2 25  1  0
  3  4  2  0
  4  5  1  0
  4 12  1  0
  5  6  1  0
  5  9  2  0
  6  7  1  0
  7  8  1  0
  8  9  1  0
  9 10  1  0
 10 11  2  0
 11 12  1  0
 12 13  2  0
 13 14  1  0
 13 25  1  0
 14 15  2  0
 15 16  1  0
 16 17  2  0
 16 24  1  0
 17 18  1  0
 18 19  1  0
 18 22  2  0
 19 20  1  0
 20 21  1  0
 21 22  1  0
 22 23  1  0
 23 24  2  0
 24 25  1  0
M  END
>  <s_m_entry_id>  (29) 
174

>  <s_m_entry_name>  (29) 
SIM_Broad_MProResults_ligprep.174

>  <Mol2_MolInfo_Name>  (29) 
332

>  <Mol2_MolInfo_Type>  (29) 
SMALL

>  <Mol2_MolInfo_Charge>  (29) 
USER_CHARGES

>  <Mol2_Substructures>  (29) 
     1 ****        1 GROUP             0       ****    0 ROOT    

>  <Name>  (29) 
332

>  <s_m_Source_Path>  (29) 
/home/jgilaber/drug_learning/drug_learning/datasets/SARS2

>  <s_m_Source_File>  (29) 
SIM_Broad_MProResults_ligprep.sd

>  <i_m_Source_File_Index>  (29) 
174

>  <s_m_subgroup_title>  (29) 
SIM_Broad_MProResults_ligprep

>  <s_m_subgroupid>  (29) 
SIM_Broad_MProResults_ligprep

>  <b_m_subgroup_collapsed>  (29) 
0

$$$$
10433
     RDKit          2D

 16 17  0  0  1  0  0  0  0  0999 V2000
   -4.2385    1.1715    0.0000 Cl  0  0  0  0  0  0  0  0  0  0  0  0
   -3.1881    0.1007    0.0000 C   0  0  0  0  0  0  0  0  0  0  0  0
   -4.2589   -0.9497    0.0000 Cl  0  0  0  0  0  0  0  0  0  0  0  0
   -2.1173    1.1511    0.0000 Cl  0  0  0  0  0  0  0  0  0  0  0  0
   -2.1376   -0.9701    0.0000 S   0  0  0  0  0  0  0  0  0  0  0  0
   -0.6851   -0.5958    0.0000 N   0  0  0  0  0  0  0  0  0  0  0  0
    0.4715   -1.5509    0.0000 C   0  0  0  0  0  0  0  0  0  0  0  0
    0.3786   -3.0480    0.0000 O   0  0  0  0  0  0  0  0  0  0  0  0
    1.7373   -0.7460    0.0000 C   0  0  0  0  0  0  0  0  0  0  0  0
    3.1824   -1.1481    0.0000 C   0  0  0  0  0  0  0  0  0  0  0  0
    4.2532   -0.0977    0.0000 C   0  0  0  0  0  0  0  0  0  0  0  0
    3.8789    1.3549    0.0000 C   0  0  0  0  0  0  0  0  0  0  0  0
    2.4338    1.7570    0.0000 C   0  0  0  0  0  0  0  0  0  0  0  0
    1.3630    0.7065    0.0000 C   0  0  0  0  0  0  0  0  0  0  0  0
   -0.1341    0.7994    0.0000 C   0  0  0  0  0  0  0  0  0  0  0  0
   -0.9390    2.0652    0.0000 O   0  0  0  0  0  0  0  0  0  0  0  0
  1  2  1  0
  2  3  1  0
  2  4  1  0
  2  5  1  0
  5  6  1  0
  6  7  1  0
  6 15  1  0
  7  8  2  0
  7  9  1  0
  9 10  1  0
  9 14  1  0
 10 11  1  0
 11 12  2  0
 12 13  1  0
 13 14  1  0
 14 15  1  0
 15 16  2  0
M  END
>  <s_m_entry_id>  (30) 
66

>  <s_m_entry_name>  (30) 
SIM_Broad_MProResults_ligprep.66

>  <Mol2_MolInfo_Name>  (30) 
10433

>  <Mol2_MolInfo_Type>  (30) 
SMALL

>  <Mol2_MolInfo_Charge>  (30) 
USER_CHARGES

>  <Mol2_Substructures>  (30) 
     1 UNK         1 GROUP             0       ****    0 ROOT    

>  <Name>  (30) 
10433

>  <s_m_Source_Path>  (30) 
/home/jgilaber/drug_learning/drug_learning/datasets/SARS2

>  <s_m_Source_File>  (30) 
SIM_Broad_MProResults_ligprep.sd

>  <i_m_Source_File_Index>  (30) 
66

>  <s_m_subgroup_title>  (30) 
SIM_Broad_MProResults_ligprep

>  <s_m_subgroupid>  (30) 
SIM_Broad_MProResults_ligprep

>  <b_m_subgroup_collapsed>  (30) 
0

$$$$
522
     RDKit          2D

 33 36  0  0  1  0  0  0  0  0999 V2000
    7.7230   -1.8119    0.0000 O   0  0  0  0  0  0  0  0  0  0  0  0
    6.2232   -1.7888    0.0000 C   0  0  0  0  0  0  0  0  0  0  0  0
    5.4532   -3.0761    0.0000 C   0  0  0  0  0  0  0  0  0  0  0  0
    3.9534   -3.0530    0.0000 C   0  0  0  0  0  0  0  0  0  0  0  0
    3.1835   -4.3403    0.0000 O   0  0  0  0  0  0  0  0  0  0  0  0
    3.2235   -1.7426    0.0000 C   0  0  0  0  0  0  0  0  0  0  0  0
    1.7237   -1.7195    0.0000 C   0  0  0  0  0  0  0  0  0  0  0  0
    0.9938   -0.4090    0.0000 C   0  0  0  0  0  0  0  0  0  0  0  0
   -0.5060   -0.3859    0.0000 O   0  0  0  0  0  0  0  0  0  0  0  0
   -1.2759   -1.6732    0.0000 C   0  0  0  0  0  0  0  0  0  0  0  0
   -0.5461   -2.9837    0.0000 O   0  0  0  0  0  0  0  0  0  0  0  0
   -2.7758   -1.6501    0.0000 C   0  0  0  0  0  0  0  0  0  0  0  0
   -3.5457   -2.9374    0.0000 C   0  0  0  0  0  0  0  0  0  0  0  0
   -5.0455   -2.9143    0.0000 C   0  0  0  0  0  0  0  0  0  0  0  0
   -5.8155   -4.2016    0.0000 O   0  0  0  0  0  0  0  0  0  0  0  0
   -5.7754   -1.6039    0.0000 C   0  0  0  0  0  0  0  0  0  0  0  0
   -7.2752   -1.5807    0.0000 O   0  0  0  0  0  0  0  0  0  0  0  0
   -5.0055   -0.3165    0.0000 C   0  0  0  0  0  0  0  0  0  0  0  0
   -5.7354    0.9939    0.0000 O   0  0  0  0  0  0  0  0  0  0  0  0
   -3.5057   -0.3397    0.0000 C   0  0  0  0  0  0  0  0  0  0  0  0
    1.7637    0.8783    0.0000 C   0  0  0  0  0  0  0  0  0  0  0  0
    3.2636    0.8552    0.0000 O   0  0  0  0  0  0  0  0  0  0  0  0
    3.9935   -0.4553    0.0000 C   0  0  0  0  0  0  0  0  0  0  0  0
    5.4933   -0.4784    0.0000 C   0  0  0  0  0  0  0  0  0  0  0  0
    1.0339    2.1888    0.0000 C   0  0  0  0  0  0  0  0  0  0  0  0
    1.8038    3.4761    0.0000 C   0  0  0  0  0  0  0  0  0  0  0  0
    1.0739    4.7865    0.0000 C   0  0  0  0  0  0  0  0  0  0  0  0
    1.8438    6.0738    0.0000 O   0  0  0  0  0  0  0  0  0  0  0  0
   -0.4259    4.8096    0.0000 C   0  0  0  0  0  0  0  0  0  0  0  0
   -1.1558    6.1201    0.0000 O   0  0  0  0  0  0  0  0  0  0  0  0
   -1.1958    3.5223    0.0000 C   0  0  0  0  0  0  0  0  0  0  0  0
   -2.6957    3.5454    0.0000 O   0  0  0  0  0  0  0  0  0  0  0  0
   -0.4660    2.2119    0.0000 C   0  0  0  0  0  0  0  0  0  0  0  0
  1  2  1  0
  2  3  2  0
  2 24  1  0
  3  4  1  0
  4  5  1  0
  4  6  2  0
  6  7  1  0
  6 23  1  0
  7  8  1  0
  8  9  1  0
  8 21  1  0
  9 10  1  0
 10 11  2  0
 10 12  1  0
 12 13  2  0
 12 20  1  0
 13 14  1  0
 14 15  1  0
 14 16  2  0
 16 17  1  0
 16 18  1  0
 18 19  1  0
 18 20  2  0
 21 22  1  0
 21 25  1  0
 22 23  1  0
 23 24  2  0
 25 26  2  0
 25 33  1  0
 26 27  1  0
 27 28  1  0
 27 29  2  0
 29 30  1  0
 29 31  1  0
 31 32  1  0
 31 33  2  0
M  END
>  <s_m_entry_id>  (31) 
239

>  <s_m_entry_name>  (31) 
SIM_Broad_MProResults_ligprep.239

>  <Mol2_MolInfo_Name>  (31) 
522

>  <Mol2_MolInfo_Type>  (31) 
SMALL

>  <Mol2_MolInfo_Charge>  (31) 
USER_CHARGES

>  <Mol2_Substructures>  (31) 
     1 UNK         1 GROUP             0       ****    0 ROOT    

>  <Name>  (31) 
522

>  <s_m_Source_Path>  (31) 
/home/jgilaber/drug_learning/drug_learning/datasets/SARS2

>  <s_m_Source_File>  (31) 
SIM_Broad_MProResults_ligprep.sd

>  <i_m_Source_File_Index>  (31) 
239

>  <s_m_subgroup_title>  (31) 
SIM_Broad_MProResults_ligprep

>  <s_m_subgroupid>  (31) 
SIM_Broad_MProResults_ligprep

>  <b_m_subgroup_collapsed>  (31) 
0

$$$$
7231
     RDKit          2D

 25 27  0  0  1  0  0  0  0  0999 V2000
  -10.1514   -1.8578    0.0000 C   0  0  0  0  0  0  0  0  0  0  0  0
   -8.6727   -2.1092    0.0000 O   0  0  0  0  0  0  0  0  0  0  0  0
   -7.7155   -0.9543    0.0000 C   0  0  0  0  0  0  0  0  0  0  0  0
   -6.2367   -1.2058    0.0000 C   0  0  0  0  0  0  0  0  0  0  0  0
   -5.2795   -0.0509    0.0000 C   0  0  0  0  0  0  0  0  0  0  0  0
   -3.8008   -0.3024    0.0000 O   0  0  0  0  0  0  0  0  0  0  0  0
   -2.8436    0.8525    0.0000 C   0  0  0  0  0  0  0  0  0  0  0  0
   -3.3652    2.2589    0.0000 C   0  0  0  0  0  0  0  0  0  0  0  0
   -2.4080    3.4138    0.0000 C   0  0  0  0  0  0  0  0  0  0  0  0
   -0.9293    3.1624    0.0000 N   0  0  0  0  0  0  0  0  0  0  0  0
   -0.4077    1.7560    0.0000 C   0  0  0  0  0  0  0  0  0  0  0  0
    1.0711    1.5045    0.0000 C   0  0  0  0  0  0  0  0  0  0  0  0
    1.5927    0.0981    0.0000 S   0  0  0  0  0  0  0  0  0  0  0  0
    0.6355   -1.0568    0.0000 O   0  0  0  0  0  0  0  0  0  0  0  0
    3.0715   -0.1534    0.0000 C   0  0  0  0  0  0  0  0  0  0  0  0
    3.7372   -1.4975    0.0000 N   0  0  0  0  0  0  0  0  0  0  0  0
    5.2213   -1.2797    0.0000 C   0  0  0  0  0  0  0  0  0  0  0  0
    6.3762   -2.2369    0.0000 C   0  0  0  0  0  0  0  0  0  0  0  0
    7.7826   -1.7153    0.0000 C   0  0  0  0  0  0  0  0  0  0  0  0
    8.0341   -0.2366    0.0000 C   0  0  0  0  0  0  0  0  0  0  0  0
    6.8792    0.7206    0.0000 C   0  0  0  0  0  0  0  0  0  0  0  0
    5.4728    0.1990    0.0000 C   0  0  0  0  0  0  0  0  0  0  0  0
    4.1441    0.8952    0.0000 N   0  0  0  0  0  0  0  0  0  0  0  0
   -1.3648    0.6011    0.0000 C   0  0  0  0  0  0  0  0  0  0  0  0
   -0.8432   -0.8053    0.0000 C   0  0  0  0  0  0  0  0  0  0  0  0
  1  2  1  0
  2  3  1  0
  3  4  1  0
  4  5  1  0
  5  6  1  0
  6  7  1  0
  7  8  2  0
  7 24  1  0
  8  9  1  0
  9 10  1  0
 10 11  1  0
 11 12  1  0
 11 24  2  0
 12 13  1  0
 13 14  2  0
 13 15  1  0
 15 16  2  0
 15 23  1  0
 16 17  1  0
 17 18  2  0
 17 22  1  0
 18 19  1  0
 19 20  2  0
 20 21  1  0
 21 22  2  0
 22 23  1  0
 24 25  1  0
M  END
>  <s_m_entry_id>  (32) 
217

>  <s_m_entry_name>  (32) 
SIM_Broad_MProResults_ligprep.217

>  <Mol2_MolInfo_Name>  (32) 
7231

>  <Mol2_MolInfo_Type>  (32) 
SMALL

>  <Mol2_MolInfo_Charge>  (32) 
USER_CHARGES

>  <Mol2_Substructures>  (32) 
     1 ****        1 GROUP             0       ****    0 ROOT    

>  <Name>  (32) 
7231

>  <s_m_Source_Path>  (32) 
/home/jgilaber/drug_learning/drug_learning/datasets/SARS2

>  <s_m_Source_File>  (32) 
SIM_Broad_MProResults_ligprep.sd

>  <i_m_Source_File_Index>  (32) 
217

>  <s_m_subgroup_title>  (32) 
SIM_Broad_MProResults_ligprep

>  <s_m_subgroupid>  (32) 
SIM_Broad_MProResults_ligprep

>  <b_m_subgroup_collapsed>  (32) 
0

$$$$
12010
     RDKit          2D

 17 19  0  0  1  0  0  0  0  0999 V2000
   -6.0988   -0.1796    0.0000 C   0  0  0  0  0  0  0  0  0  0  0  0
   -5.5583    1.2197    0.0000 C   0  0  0  0  0  0  0  0  0  0  0  0
   -4.0763    1.4513    0.0000 C   0  0  0  0  0  0  0  0  0  0  0  0
   -3.1347    0.2836    0.0000 C   0  0  0  0  0  0  0  0  0  0  0  0
   -3.6752   -1.1157    0.0000 C   0  0  0  0  0  0  0  0  0  0  0  0
   -5.1572   -1.3473    0.0000 C   0  0  0  0  0  0  0  0  0  0  0  0
   -1.6527    0.5152    0.0000 N   0  0  0  0  0  0  0  0  0  0  0  0
   -0.7111   -0.6525    0.0000 S   0  0  0  0  0  0  0  0  0  0  0  0
    0.7709   -0.4209    0.0000 C   0  0  0  0  0  0  0  0  0  0  0  0
    1.8293   -1.4838    0.0000 N   0  0  0  0  0  0  0  0  0  0  0  0
    3.1672   -0.8056    0.0000 C   0  0  0  0  0  0  0  0  0  0  0  0
    4.5665   -1.3460    0.0000 C   0  0  0  0  0  0  0  0  0  0  0  0
    5.7342   -0.4045    0.0000 C   0  0  0  0  0  0  0  0  0  0  0  0
    5.5026    1.0775    0.0000 C   0  0  0  0  0  0  0  0  0  0  0  0
    4.1033    1.6180    0.0000 C   0  0  0  0  0  0  0  0  0  0  0  0
    2.9357    0.6764    0.0000 C   0  0  0  0  0  0  0  0  0  0  0  0
    1.4546    0.9142    0.0000 S   0  0  0  0  0  0  0  0  0  0  0  0
  1  2  1  0
  1  6  1  0
  2  3  1  0
  3  4  1  0
  4  5  1  0
  4  7  1  0
  5  6  1  0
  7  8  1  0
  8  9  1  0
  9 10  2  0
  9 17  1  0
 10 11  1  0
 11 12  2  0
 11 16  1  0
 12 13  1  0
 13 14  2  0
 14 15  1  0
 15 16  2  0
 16 17  1  0
M  END
>  <s_m_entry_id>  (33) 
149

>  <s_m_entry_name>  (33) 
SIM_Broad_MProResults_ligprep.149

>  <Mol2_MolInfo_Name>  (33) 
12010

>  <Mol2_MolInfo_Type>  (33) 
SMALL

>  <Mol2_MolInfo_Charge>  (33) 
USER_CHARGES

>  <Mol2_Substructures>  (33) 
     1 UNK         1 GROUP             0       ****    0 ROOT    

>  <Name>  (33) 
12010

>  <s_m_Source_Path>  (33) 
/home/jgilaber/drug_learning/drug_learning/datasets/SARS2

>  <s_m_Source_File>  (33) 
SIM_Broad_MProResults_ligprep.sd

>  <i_m_Source_File_Index>  (33) 
149

>  <s_m_subgroup_title>  (33) 
SIM_Broad_MProResults_ligprep

>  <s_m_subgroupid>  (33) 
SIM_Broad_MProResults_ligprep

>  <b_m_subgroup_collapsed>  (33) 
0

$$$$
10883
     RDKit          2D

 14 14  0  0  1  0  0  0  0  0999 V2000
    5.1834   -0.4608    0.0000 C   0  0  0  0  0  0  0  0  0  0  0  0
    3.6986   -0.2483    0.0000 C   0  0  0  0  0  0  0  0  0  0  0  0
    2.7721   -1.4279    0.0000 C   0  0  0  0  0  0  0  0  0  0  0  0
    1.2872   -1.2153    0.0000 C   0  0  0  0  0  0  0  0  0  0  0  0
    0.7288    0.1769    0.0000 C   0  0  0  0  0  0  0  0  0  0  0  0
    1.6554    1.3565    0.0000 C   0  0  0  0  0  0  0  0  0  0  0  0
    3.1402    1.1439    0.0000 C   0  0  0  0  0  0  0  0  0  0  0  0
   -0.7560    0.3894    0.0000 S   0  0  0  0  0  0  0  0  0  0  0  0
   -0.9686   -1.0954    0.0000 O   0  0  0  0  0  0  0  0  0  0  0  0
   -0.5434    1.8743    0.0000 O   0  0  0  0  0  0  0  0  0  0  0  0
   -2.2409    0.6020    0.0000 C   0  0  0  0  0  0  0  0  0  0  0  0
   -3.1674   -0.5776    0.0000 C   0  0  0  0  0  0  0  0  0  0  0  0
   -4.6523   -0.3651    0.0000 C   0  0  0  0  0  0  0  0  0  0  0  0
   -6.1371   -0.1525    0.0000 N   0  0  0  0  0  0  0  0  0  0  0  0
  1  2  1  0
  2  3  2  0
  2  7  1  0
  3  4  1  0
  4  5  2  0
  5  6  1  0
  5  8  1  0
  6  7  2  0
  8  9  2  0
  8 10  2  0
  8 11  1  0
 11 12  2  0
 12 13  1  0
 13 14  3  0
M  END
>  <s_m_entry_id>  (34) 
97

>  <s_m_entry_name>  (34) 
SIM_Broad_MProResults_ligprep.97

>  <Mol2_MolInfo_Name>  (34) 
10883

>  <Mol2_MolInfo_Type>  (34) 
SMALL

>  <Mol2_MolInfo_Charge>  (34) 
USER_CHARGES

>  <Mol2_Substructures>  (34) 
     1 UNK         1 GROUP             0       ****    0 ROOT    

>  <Name>  (34) 
10883

>  <s_m_Source_Path>  (34) 
/home/jgilaber/drug_learning/drug_learning/datasets/SARS2

>  <s_m_Source_File>  (34) 
SIM_Broad_MProResults_ligprep.sd

>  <i_m_Source_File_Index>  (34) 
97

>  <s_m_subgroup_title>  (34) 
SIM_Broad_MProResults_ligprep

>  <s_m_subgroupid>  (34) 
SIM_Broad_MProResults_ligprep

>  <b_m_subgroup_collapsed>  (34) 
0

$$$$
6835
     RDKit          2D

 16 18  0  0  1  0  0  0  0  0999 V2000
   -5.1962   -1.3125    0.0000 N   0  0  0  0  0  0  0  0  0  0  0  0
   -3.8971   -0.5625    0.0000 C   0  0  0  0  0  0  0  0  0  0  0  0
   -3.8971    0.9375    0.0000 C   0  0  0  0  0  0  0  0  0  0  0  0
   -2.5981    1.6875    0.0000 C   0  0  0  0  0  0  0  0  0  0  0  0
   -1.2990    0.9375    0.0000 C   0  0  0  0  0  0  0  0  0  0  0  0
    0.0000    1.6875    0.0000 C   0  0  0  0  0  0  0  0  0  0  0  0
    1.2990    0.9375    0.0000 C   0  0  0  0  0  0  0  0  0  0  0  0
    2.5981    1.6875    0.0000 C   0  0  0  0  0  0  0  0  0  0  0  0
    3.8971    0.9375    0.0000 C   0  0  0  0  0  0  0  0  0  0  0  0
    3.8971   -0.5625    0.0000 C   0  0  0  0  0  0  0  0  0  0  0  0
    5.1962   -1.3125    0.0000 N   0  0  0  0  0  0  0  0  0  0  0  0
    2.5981   -1.3125    0.0000 C   0  0  0  0  0  0  0  0  0  0  0  0
    1.2990   -0.5625    0.0000 C   0  0  0  0  0  0  0  0  0  0  0  0
   -0.0000   -1.3125    0.0000 N   0  0  0  0  0  0  0  0  0  0  0  0
   -1.2990   -0.5625    0.0000 C   0  0  0  0  0  0  0  0  0  0  0  0
   -2.5981   -1.3125    0.0000 C   0  0  0  0  0  0  0  0  0  0  0  0
  1  2  1  0
  2  3  2  0
  2 16  1  0
  3  4  1  0
  4  5  2  0
  5  6  1  0
  5 15  1  0
  6  7  2  0
  7  8  1  0
  7 13  1  0
  8  9  2  0
  9 10  1  0
 10 11  1  0
 10 12  1  0
 12 13  2  0
 13 14  1  0
 14 15  1  0
 15 16  2  0
M  END
>  <s_m_entry_id>  (35) 
269

>  <s_m_entry_name>  (35) 
SIM_Broad_MProResults_ligprep.269

>  <Mol2_MolInfo_Name>  (35) 
6835

>  <Mol2_MolInfo_Type>  (35) 
SMALL

>  <Mol2_MolInfo_Charge>  (35) 
USER_CHARGES

>  <Mol2_Substructures>  (35) 
     1 UNK         1 GROUP             0       ****    0 ROOT    

>  <Name>  (35) 
6835

>  <s_m_Source_Path>  (35) 
/home/jgilaber/drug_learning/drug_learning/datasets/SARS2

>  <s_m_Source_File>  (35) 
SIM_Broad_MProResults_ligprep.sd

>  <i_m_Source_File_Index>  (35) 
269

>  <s_m_subgroup_title>  (35) 
SIM_Broad_MProResults_ligprep

>  <s_m_subgroupid>  (35) 
SIM_Broad_MProResults_ligprep

>  <b_m_subgroup_collapsed>  (35) 
0

$$$$
11450
     RDKit          2D

 32 35  0  0  1  0  0  0  0  0999 V2000
   -3.0891    6.2344    0.0000 C   0  0  0  0  0  0  0  0  0  0  0  0
   -4.0222    5.0600    0.0000 C   0  0  0  0  0  0  0  0  0  0  0  0
   -3.4717    3.6646    0.0000 C   0  0  0  0  0  0  0  0  0  0  0  0
   -1.9881    3.4437    0.0000 C   0  0  0  0  0  0  0  0  0  0  0  0
   -1.0549    4.6182    0.0000 O   0  0  0  0  0  0  0  0  0  0  0  0
   -4.4048    2.4902    0.0000 N   0  0  0  0  0  0  0  0  0  0  0  0
   -3.8543    1.0949    0.0000 C   0  0  0  0  0  0  0  0  0  0  0  0
   -2.3707    0.8740    0.0000 N   0  0  0  0  0  0  0  0  0  0  0  0
   -1.8202   -0.5213    0.0000 C   0  0  0  0  0  0  0  0  0  0  0  0
   -0.3365   -0.7422    0.0000 N   0  0  0  0  0  0  0  0  0  0  0  0
    0.5966    0.4322    0.0000 C   0  0  0  0  0  0  0  0  0  0  0  0
    2.0803    0.2113    0.0000 C   0  0  0  0  0  0  0  0  0  0  0  0
    2.6308   -1.1840    0.0000 C   0  0  0  0  0  0  0  0  0  0  0  0
    4.1144   -1.4049    0.0000 C   0  0  0  0  0  0  0  0  0  0  0  0
    5.0476   -0.2305    0.0000 C   0  0  0  0  0  0  0  0  0  0  0  0
    4.4970    1.1648    0.0000 C   0  0  0  0  0  0  0  0  0  0  0  0
    3.0134    1.3857    0.0000 C   0  0  0  0  0  0  0  0  0  0  0  0
    6.5312   -0.4514    0.0000 C   0  0  0  0  0  0  0  0  0  0  0  0
    7.0817   -1.8467    0.0000 C   0  0  0  0  0  0  0  0  0  0  0  0
    8.5654   -2.0676    0.0000 C   0  0  0  0  0  0  0  0  0  0  0  0
    9.4985   -0.8932    0.0000 C   0  0  0  0  0  0  0  0  0  0  0  0
    8.9480    0.5022    0.0000 C   0  0  0  0  0  0  0  0  0  0  0  0
    7.4643    0.7231    0.0000 N   0  0  0  0  0  0  0  0  0  0  0  0
   -2.7533   -1.6958    0.0000 C   0  0  0  0  0  0  0  0  0  0  0  0
   -2.5049   -3.1750    0.0000 N   0  0  0  0  0  0  0  0  0  0  0  0
   -3.8350   -3.8684    0.0000 C   0  0  0  0  0  0  0  0  0  0  0  0
   -4.9055   -2.8176    0.0000 N   0  0  0  0  0  0  0  0  0  0  0  0
   -6.3848   -3.0660    0.0000 C   0  0  0  0  0  0  0  0  0  0  0  0
   -6.9093   -4.4713    0.0000 C   0  0  0  0  0  0  0  0  0  0  0  0
   -7.3395   -1.9091    0.0000 C   0  0  0  0  0  0  0  0  0  0  0  0
   -4.2369   -1.4749    0.0000 C   0  0  0  0  0  0  0  0  0  0  0  0
   -4.7874   -0.0795    0.0000 N   0  0  0  0  0  0  0  0  0  0  0  0
  1  2  1  0
  2  3  1  0
  3  4  1  0
  3  6  1  0
  4  5  1  0
  6  7  1  0
  7  8  2  0
  7 32  1  0
  8  9  1  0
  9 10  1  0
  9 24  2  0
 10 11  1  0
 11 12  1  0
 12 13  2  0
 12 17  1  0
 13 14  1  0
 14 15  2  0
 15 16  1  0
 15 18  1  0
 16 17  2  0
 18 19  2  0
 18 23  1  0
 19 20  1  0
 20 21  2  0
 21 22  1  0
 22 23  2  0
 24 25  1  0
 24 31  1  0
 25 26  2  0
 26 27  1  0
 27 28  1  0
 27 31  1  0
 28 29  1  0
 28 30  1  0
 31 32  2  0
M  END
>  <s_m_entry_id>  (36) 
127

>  <s_m_entry_name>  (36) 
SIM_Broad_MProResults_ligprep.127

>  <Mol2_MolInfo_Name>  (36) 
11450

>  <Mol2_MolInfo_Type>  (36) 
SMALL

>  <Mol2_MolInfo_Charge>  (36) 
USER_CHARGES

>  <Mol2_Substructures>  (36) 
     1 UNK         1 GROUP             0       ****    0 ROOT    

>  <Name>  (36) 
11450

>  <s_m_Source_Path>  (36) 
/home/jgilaber/drug_learning/drug_learning/datasets/SARS2

>  <s_m_Source_File>  (36) 
SIM_Broad_MProResults_ligprep.sd

>  <i_m_Source_File_Index>  (36) 
127

>  <s_m_subgroup_title>  (36) 
SIM_Broad_MProResults_ligprep

>  <s_m_subgroupid>  (36) 
SIM_Broad_MProResults_ligprep

>  <b_m_subgroup_collapsed>  (36) 
0

$$$$
11643
     RDKit          2D

 17 17  0  0  1  0  0  0  0  0999 V2000
    4.0306   -1.7131    0.0000 C   0  0  0  0  0  0  0  0  0  0  0  0
    4.1916   -0.2218    0.0000 C   0  0  0  0  0  0  0  0  0  0  0  0
    4.3525    1.2696    0.0000 C   0  0  0  0  0  0  0  0  0  0  0  0
    5.6829   -0.3827    0.0000 C   0  0  0  0  0  0  0  0  0  0  0  0
    2.7002   -0.0608    0.0000 C   0  0  0  0  0  0  0  0  0  0  0  0
    1.8152   -1.2719    0.0000 C   0  0  0  0  0  0  0  0  0  0  0  0
    0.3238   -1.1110    0.0000 C   0  0  0  0  0  0  0  0  0  0  0  0
   -0.2824    0.2611    0.0000 C   0  0  0  0  0  0  0  0  0  0  0  0
    0.6026    1.4721    0.0000 C   0  0  0  0  0  0  0  0  0  0  0  0
    2.0940    1.3112    0.0000 C   0  0  0  0  0  0  0  0  0  0  0  0
   -1.7738    0.4220    0.0000 S   0  0  0  0  0  0  0  0  0  0  0  0
   -1.9347   -1.0693    0.0000 O   0  0  0  0  0  0  0  0  0  0  0  0
   -1.6128    1.9133    0.0000 O   0  0  0  0  0  0  0  0  0  0  0  0
   -3.2651    0.5829    0.0000 C   0  0  0  0  0  0  0  0  0  0  0  0
   -4.1502   -0.6281    0.0000 C   0  0  0  0  0  0  0  0  0  0  0  0
   -5.6415   -0.4672    0.0000 C   0  0  0  0  0  0  0  0  0  0  0  0
   -7.1329   -0.3062    0.0000 N   0  0  0  0  0  0  0  0  0  0  0  0
  1  2  1  0
  2  3  1  0
  2  4  1  0
  2  5  1  0
  5  6  2  0
  5 10  1  0
  6  7  1  0
  7  8  2  0
  8  9  1  0
  8 11  1  0
  9 10  2  0
 11 12  2  0
 11 13  2  0
 11 14  1  0
 14 15  2  0
 15 16  1  0
 16 17  3  0
M  END
>  <s_m_entry_id>  (37) 
132

>  <s_m_entry_name>  (37) 
SIM_Broad_MProResults_ligprep.132

>  <Mol2_MolInfo_Name>  (37) 
11643

>  <Mol2_MolInfo_Type>  (37) 
SMALL

>  <Mol2_MolInfo_Charge>  (37) 
USER_CHARGES

>  <Mol2_Substructures>  (37) 
     1 UNK         1 GROUP             0       ****    0 ROOT    

>  <Name>  (37) 
11643

>  <s_m_Source_Path>  (37) 
/home/jgilaber/drug_learning/drug_learning/datasets/SARS2

>  <s_m_Source_File>  (37) 
SIM_Broad_MProResults_ligprep.sd

>  <i_m_Source_File_Index>  (37) 
132

>  <s_m_subgroup_title>  (37) 
SIM_Broad_MProResults_ligprep

>  <s_m_subgroupid>  (37) 
SIM_Broad_MProResults_ligprep

>  <b_m_subgroup_collapsed>  (37) 
0

$$$$
12581
     RDKit          2D

 18 19  0  0  1  0  0  0  0  0999 V2000
   -4.6666   -2.6810    0.0000 O   0  0  0  0  0  0  0  0  0  0  0  0
   -4.0804   -1.3003    0.0000 C   0  0  0  0  0  0  0  0  0  0  0  0
   -4.9830   -0.1023    0.0000 C   0  0  0  0  0  0  0  0  0  0  0  0
   -4.3967    1.2784    0.0000 C   0  0  0  0  0  0  0  0  0  0  0  0
   -5.2993    2.4765    0.0000 O   0  0  0  0  0  0  0  0  0  0  0  0
   -2.9079    1.4610    0.0000 C   0  0  0  0  0  0  0  0  0  0  0  0
   -2.0053    0.2630    0.0000 C   0  0  0  0  0  0  0  0  0  0  0  0
   -0.5164    0.4456    0.0000 C   0  0  0  0  0  0  0  0  0  0  0  0
    0.3862   -0.7524    0.0000 C   0  0  0  0  0  0  0  0  0  0  0  0
    1.8750   -0.5698    0.0000 C   0  0  0  0  0  0  0  0  0  0  0  0
    2.7776   -1.7679    0.0000 C   0  0  0  0  0  0  0  0  0  0  0  0
    4.2664   -1.5852    0.0000 C   0  0  0  0  0  0  0  0  0  0  0  0
    4.8527   -0.2045    0.0000 C   0  0  0  0  0  0  0  0  0  0  0  0
    6.3415   -0.0219    0.0000 O   0  0  0  0  0  0  0  0  0  0  0  0
    3.9501    0.9935    0.0000 C   0  0  0  0  0  0  0  0  0  0  0  0
    4.5363    2.3742    0.0000 O   0  0  0  0  0  0  0  0  0  0  0  0
    2.4612    0.8109    0.0000 C   0  0  0  0  0  0  0  0  0  0  0  0
   -2.5915   -1.1177    0.0000 C   0  0  0  0  0  0  0  0  0  0  0  0
  1  2  1  0
  2  3  2  0
  2 18  1  0
  3  4  1  0
  4  5  1  0
  4  6  2  0
  6  7  1  0
  7  8  1  0
  7 18  2  0
  8  9  2  0
  9 10  1  0
 10 11  2  0
 10 17  1  0
 11 12  1  0
 12 13  2  0
 13 14  1  0
 13 15  1  0
 15 16  1  0
 15 17  2  0
M  END
>  <s_m_entry_id>  (38) 
163

>  <s_m_entry_name>  (38) 
SIM_Broad_MProResults_ligprep.163

>  <Mol2_MolInfo_Name>  (38) 
12581

>  <Mol2_MolInfo_Type>  (38) 
SMALL

>  <Mol2_MolInfo_Charge>  (38) 
USER_CHARGES

>  <Mol2_Substructures>  (38) 
     1 UNK         1 GROUP             0       ****    0 ROOT    

>  <Name>  (38) 
12581

>  <s_m_Source_Path>  (38) 
/home/jgilaber/drug_learning/drug_learning/datasets/SARS2

>  <s_m_Source_File>  (38) 
SIM_Broad_MProResults_ligprep.sd

>  <i_m_Source_File_Index>  (38) 
163

>  <s_m_subgroup_title>  (38) 
SIM_Broad_MProResults_ligprep

>  <s_m_subgroupid>  (38) 
SIM_Broad_MProResults_ligprep

>  <b_m_subgroup_collapsed>  (38) 
0

$$$$
12766
     RDKit          2D

 42 46  0  0  1  0  0  0  0  0999 V2000
   -7.0372   -2.9287    0.0000 C   0  0  0  0  0  0  0  0  0  0  0  0
   -5.5522   -2.7175    0.0000 C   0  0  0  0  0  0  0  0  0  0  0  0
   -4.5084   -3.7947    0.0000 C   0  0  0  0  0  0  0  0  0  0  0  0
   -4.7664   -5.2724    0.0000 C   0  0  0  0  0  0  0  0  0  0  0  0
   -3.6157   -6.2346    0.0000 C   0  0  0  0  0  0  0  0  0  0  0  0
   -3.1613   -3.1349    0.0000 C   0  0  0  0  0  0  0  0  0  0  0  0
   -1.3363   -3.8208    0.0000 C   0  0  0  0  0  0  0  0  0  0  0  0
    0.1393   -3.5514    0.0000 C   0  0  0  0  0  0  0  0  0  0  0  0
    1.3995   -2.7378    0.0000 N   0  0  0  0  0  0  0  0  0  0  0  0
    2.2524   -1.5039    0.0000 C   0  0  0  0  0  0  0  0  0  0  0  0
    2.5682   -0.0375    0.0000 C   0  0  0  0  0  0  0  0  0  0  0  0
    2.2988    1.4381    0.0000 C   0  0  0  0  0  0  0  0  0  0  0  0
    1.4852    2.6983    0.0000 N   0  0  0  0  0  0  0  0  0  0  0  0
    0.2513    3.5512    0.0000 C   0  0  0  0  0  0  0  0  0  0  0  0
   -1.2150    3.8670    0.0000 C   0  0  0  0  0  0  0  0  0  0  0  0
   -2.6907    3.5976    0.0000 C   0  0  0  0  0  0  0  0  0  0  0  0
   -3.9509    2.7840    0.0000 N   0  0  0  0  0  0  0  0  0  0  0  0
   -4.8038    1.5501    0.0000 C   0  0  0  0  0  0  0  0  0  0  0  0
   -5.1196    0.0838    0.0000 C   0  0  0  0  0  0  0  0  0  0  0  0
   -4.8502   -1.3919    0.0000 C   0  0  0  0  0  0  0  0  0  0  0  0
   -3.3725   -1.6499    0.0000 N   0  0  0  0  0  0  0  0  0  0  0  0
   -5.4636    2.8972    0.0000 C   0  0  0  0  0  0  0  0  0  0  0  0
   -6.9412    3.1552    0.0000 C   0  0  0  0  0  0  0  0  0  0  0  0
   -7.9035    2.0045    0.0000 C   0  0  0  0  0  0  0  0  0  0  0  0
   -4.3863    3.9410    0.0000 C   0  0  0  0  0  0  0  0  0  0  0  0
   -4.5976    5.4261    0.0000 C   0  0  0  0  0  0  0  0  0  0  0  0
    1.5984    4.2110    0.0000 C   0  0  0  0  0  0  0  0  0  0  0  0
    1.8564    5.6887    0.0000 C   0  0  0  0  0  0  0  0  0  0  0  0
    2.6422    3.1338    0.0000 C   0  0  0  0  0  0  0  0  0  0  0  0
    4.1273    3.3450    0.0000 C   0  0  0  0  0  0  0  0  0  0  0  0
    5.0527    2.1645    0.0000 C   0  0  0  0  0  0  0  0  0  0  0  0
    6.5378    2.3758    0.0000 C   0  0  0  0  0  0  0  0  0  0  0  0
    7.0974    3.7675    0.0000 O   0  0  0  0  0  0  0  0  0  0  0  0
    7.4633    1.1953    0.0000 O   0  0  0  0  0  0  0  0  0  0  0  0
    2.9122   -2.8510    0.0000 C   0  0  0  0  0  0  0  0  0  0  0  0
    4.3899   -3.1090    0.0000 C   0  0  0  0  0  0  0  0  0  0  0  0
    5.3521   -1.9583    0.0000 C   0  0  0  0  0  0  0  0  0  0  0  0
    6.8298   -2.2163    0.0000 C   0  0  0  0  0  0  0  0  0  0  0  0
    7.3452   -3.6250    0.0000 O   0  0  0  0  0  0  0  0  0  0  0  0
    7.7920   -1.0656    0.0000 O   0  0  0  0  0  0  0  0  0  0  0  0
    1.8350   -3.8948    0.0000 C   0  0  0  0  0  0  0  0  0  0  0  0
    2.0462   -5.3798    0.0000 C   0  0  0  0  0  0  0  0  0  0  0  0
  1  2  1  0
  2  3  2  0
  2 20  1  0
  3  4  1  0
  3  6  1  0
  4  5  2  0
  6  7  2  0
  6 21  1  0
  7  8  1  0
  8  9  1  0
  8 41  2  0
  9 10  1  0
 10 11  1  0
 10 35  2  0
 11 12  2  0
 12 13  1  0
 12 29  1  0
 13 14  1  0
 14 15  2  0
 14 27  1  0
 15 16  1  0
 16 17  1  0
 16 25  2  0
 17 18  1  0
 18 19  1  0
 18 22  2  0
 19 20  2  0
 20 21  1  0
 22 23  1  0
 22 25  1  0
 23 24  2  0
 25 26  1  0
 27 28  1  0
 27 29  2  0
 29 30  1  0
 30 31  1  0
 31 32  1  0
 32 33  2  0
 32 34  1  0
 35 36  1  0
 35 41  1  0
 36 37  1  0
 37 38  1  0
 38 39  2  0
 38 40  1  0
 41 42  1  0
M  CHG  2  34  -1  40  -1
M  END
>  <s_m_entry_id>  (39) 
170

>  <s_m_entry_name>  (39) 
SIM_Broad_MProResults_ligprep.170

>  <Mol2_MolInfo_Name>  (39) 
12766

>  <Mol2_MolInfo_Type>  (39) 
SMALL

>  <Mol2_MolInfo_Charge>  (39) 
USER_CHARGES

>  <Mol2_Substructures>  (39) 
     1 UNK         1 GROUP             0       ****    0 ROOT    

>  <Name>  (39) 
12766

>  <s_m_Source_Path>  (39) 
/home/jgilaber/drug_learning/drug_learning/datasets/SARS2

>  <s_m_Source_File>  (39) 
SIM_Broad_MProResults_ligprep.sd

>  <i_m_Source_File_Index>  (39) 
170

>  <s_m_subgroup_title>  (39) 
SIM_Broad_MProResults_ligprep

>  <s_m_subgroupid>  (39) 
SIM_Broad_MProResults_ligprep

>  <b_m_subgroup_collapsed>  (39) 
0

$$$$
11378
     RDKit          2D

 11 10  0  0  1  0  0  0  0  0999 V2000
   -2.5981    1.9091    0.0000 C   0  0  0  0  0  0  0  0  0  0  0  0
   -2.5981    0.4091    0.0000 N   0  0  0  0  0  0  0  0  0  0  0  0
   -3.8971   -0.3409    0.0000 C   0  0  0  0  0  0  0  0  0  0  0  0
   -1.2990   -0.3409    0.0000 C   0  0  0  0  0  0  0  0  0  0  0  0
   -1.2990   -1.8409    0.0000 S   0  0  0  0  0  0  0  0  0  0  0  0
   -0.0000    0.4091    0.0000 S   0  0  0  0  0  0  0  0  0  0  0  0
    1.2990   -0.3409    0.0000 C   0  0  0  0  0  0  0  0  0  0  0  0
    1.2990   -1.8409    0.0000 S   0  0  0  0  0  0  0  0  0  0  0  0
    2.5981    0.4091    0.0000 N   0  0  0  0  0  0  0  0  0  0  0  0
    3.8971   -0.3409    0.0000 C   0  0  0  0  0  0  0  0  0  0  0  0
    2.5981    1.9091    0.0000 C   0  0  0  0  0  0  0  0  0  0  0  0
  1  2  1  0
  2  3  1  0
  2  4  1  0
  4  5  2  0
  4  6  1  0
  6  7  1  0
  7  8  2  0
  7  9  1  0
  9 10  1  0
  9 11  1  0
M  END
>  <s_m_entry_id>  (40) 
122

>  <s_m_entry_name>  (40) 
SIM_Broad_MProResults_ligprep.122

>  <Mol2_MolInfo_Name>  (40) 
11378

>  <Mol2_MolInfo_Type>  (40) 
SMALL

>  <Mol2_MolInfo_Charge>  (40) 
USER_CHARGES

>  <Mol2_Substructures>  (40) 
     1 UNK         1 GROUP             0       ****    0 ROOT    

>  <Name>  (40) 
11378

>  <s_m_Source_Path>  (40) 
/home/jgilaber/drug_learning/drug_learning/datasets/SARS2

>  <s_m_Source_File>  (40) 
SIM_Broad_MProResults_ligprep.sd

>  <i_m_Source_File_Index>  (40) 
122

>  <s_m_subgroup_title>  (40) 
SIM_Broad_MProResults_ligprep

>  <s_m_subgroupid>  (40) 
SIM_Broad_MProResults_ligprep

>  <b_m_subgroup_collapsed>  (40) 
0

$$$$
9509
     RDKit          2D

 24 26  0  0  1  0  0  0  0  0999 V2000
   -8.5505   -0.5131    0.0000 C   0  0  0  0  0  0  0  0  0  0  0  0
   -7.2498   -1.2602    0.0000 O   0  0  0  0  0  0  0  0  0  0  0  0
   -5.9524   -0.5073    0.0000 C   0  0  0  0  0  0  0  0  0  0  0  0
   -5.9558    0.9927    0.0000 C   0  0  0  0  0  0  0  0  0  0  0  0
   -4.6584    1.7457    0.0000 C   0  0  0  0  0  0  0  0  0  0  0  0
   -3.3577    0.9986    0.0000 C   0  0  0  0  0  0  0  0  0  0  0  0
   -1.9322    1.4653    0.0000 N   0  0  0  0  0  0  0  0  0  0  0  0
   -1.0478    0.2538    0.0000 C   0  0  0  0  0  0  0  0  0  0  0  0
   -1.9267   -0.9617    0.0000 N   0  0  0  0  0  0  0  0  0  0  0  0
   -3.3544   -0.5014    0.0000 C   0  0  0  0  0  0  0  0  0  0  0  0
   -4.6517   -1.2543    0.0000 N   0  0  0  0  0  0  0  0  0  0  0  0
    0.4522    0.2571    0.0000 S   0  0  0  0  0  0  0  0  0  0  0  0
    1.1993    1.5579    0.0000 O   0  0  0  0  0  0  0  0  0  0  0  0
    1.2051   -1.0402    0.0000 C   0  0  0  0  0  0  0  0  0  0  0  0
    2.7051   -1.0368    0.0000 C   0  0  0  0  0  0  0  0  0  0  0  0
    3.4580   -2.3342    0.0000 N   0  0  0  0  0  0  0  0  0  0  0  0
    4.9580   -2.3308    0.0000 C   0  0  0  0  0  0  0  0  0  0  0  0
    5.7051   -1.0301    0.0000 C   0  0  0  0  0  0  0  0  0  0  0  0
    7.2051   -1.0267    0.0000 C   0  0  0  0  0  0  0  0  0  0  0  0
    4.9522    0.2673    0.0000 C   0  0  0  0  0  0  0  0  0  0  0  0
    5.6993    1.5680    0.0000 O   0  0  0  0  0  0  0  0  0  0  0  0
    4.9464    2.8653    0.0000 C   0  0  0  0  0  0  0  0  0  0  0  0
    3.4522    0.2639    0.0000 C   0  0  0  0  0  0  0  0  0  0  0  0
    2.6993    1.5612    0.0000 C   0  0  0  0  0  0  0  0  0  0  0  0
  1  2  1  0
  2  3  1  0
  3  4  2  0
  3 11  1  0
  4  5  1  0
  5  6  2  0
  6  7  1  0
  6 10  1  0
  7  8  1  0
  8  9  2  0
  8 12  1  0
  9 10  1  0
 10 11  2  0
 12 13  2  0
 12 14  1  0
 14 15  1  0
 15 16  1  0
 15 23  2  0
 16 17  1  0
 17 18  2  0
 18 19  1  0
 18 20  1  0
 20 21  1  0
 20 23  1  0
 21 22  1  0
 23 24  1  0
M  END
>  <s_m_entry_id>  (41) 
235

>  <s_m_entry_name>  (41) 
SIM_Broad_MProResults_ligprep.235

>  <Mol2_MolInfo_Name>  (41) 
9509

>  <Mol2_MolInfo_Type>  (41) 
SMALL

>  <Mol2_MolInfo_Charge>  (41) 
USER_CHARGES

>  <Mol2_Substructures>  (41) 
     1 ****        1 GROUP             0       ****    0 ROOT    

>  <Name>  (41) 
9509

>  <s_m_Source_Path>  (41) 
/home/jgilaber/drug_learning/drug_learning/datasets/SARS2

>  <s_m_Source_File>  (41) 
SIM_Broad_MProResults_ligprep.sd

>  <i_m_Source_File_Index>  (41) 
235

>  <s_m_subgroup_title>  (41) 
SIM_Broad_MProResults_ligprep

>  <s_m_subgroupid>  (41) 
SIM_Broad_MProResults_ligprep

>  <b_m_subgroup_collapsed>  (41) 
0

$$$$
6930
     RDKit          2D

 20 23  0  0  1  0  0  0  0  0999 V2000
   -5.2137    0.8060    0.0000 O   0  0  0  0  0  0  0  0  0  0  0  0
   -3.7611    0.4320    0.0000 C   0  0  0  0  0  0  0  0  0  0  0  0
   -3.3588   -1.0131    0.0000 C   0  0  0  0  0  0  0  0  0  0  0  0
   -1.9061   -1.3871    0.0000 C   0  0  0  0  0  0  0  0  0  0  0  0
   -1.5038   -2.8322    0.0000 C   0  0  0  0  0  0  0  0  0  0  0  0
   -0.0512   -3.2062    0.0000 C   0  0  0  0  0  0  0  0  0  0  0  0
    0.9991   -2.1353    0.0000 C   0  0  0  0  0  0  0  0  0  0  0  0
    2.4517   -2.5093    0.0000 N   0  0  0  0  0  0  0  0  0  0  0  0
    3.5019   -1.4384    0.0000 C   0  0  0  0  0  0  0  0  0  0  0  0
    3.0996    0.0067    0.0000 C   0  0  0  0  0  0  0  0  0  0  0  0
    4.1498    1.0776    0.0000 C   0  0  0  0  0  0  0  0  0  0  0  0
    3.7475    2.5227    0.0000 C   0  0  0  0  0  0  0  0  0  0  0  0
    2.2949    2.8967    0.0000 C   0  0  0  0  0  0  0  0  0  0  0  0
    1.2446    1.8258    0.0000 C   0  0  0  0  0  0  0  0  0  0  0  0
    1.6470    0.3807    0.0000 C   0  0  0  0  0  0  0  0  0  0  0  0
    0.5967   -0.6902    0.0000 C   0  0  0  0  0  0  0  0  0  0  0  0
   -0.8559   -0.3162    0.0000 C   0  0  0  0  0  0  0  0  0  0  0  0
   -1.2582    1.1289    0.0000 C   0  0  0  0  0  0  0  0  0  0  0  0
   -2.7108    1.5029    0.0000 C   0  0  0  0  0  0  0  0  0  0  0  0
   -3.1132    2.9480    0.0000 O   0  0  0  0  0  0  0  0  0  0  0  0
  1  2  1  0
  2  3  2  0
  2 19  1  0
  3  4  1  0
  4  5  1  0
  4 17  2  0
  5  6  1  0
  6  7  1  0
  7  8  1  0
  7 16  1  0
  8  9  1  0
  9 10  1  0
 10 11  2  0
 10 15  1  0
 11 12  1  0
 12 13  2  0
 13 14  1  0
 14 15  2  0
 15 16  1  0
 16 17  1  0
 17 18  1  0
 18 19  2  0
 19 20  1  0
M  CHG  1   8   1
M  END
>  <s_m_entry_id>  (42) 
271

>  <s_m_entry_name>  (42) 
SIM_Broad_MProResults_ligprep.271

>  <Mol2_MolInfo_Name>  (42) 
6930

>  <Mol2_MolInfo_Type>  (42) 
SMALL

>  <Mol2_MolInfo_Charge>  (42) 
USER_CHARGES

>  <Mol2_Substructures>  (42) 
     1 UNK         1 GROUP             0       ****    0 ROOT    

>  <Name>  (42) 
6930

>  <s_m_Source_Path>  (42) 
/home/jgilaber/drug_learning/drug_learning/datasets/SARS2

>  <s_m_Source_File>  (42) 
SIM_Broad_MProResults_ligprep.sd

>  <i_m_Source_File_Index>  (42) 
271

>  <s_m_subgroup_title>  (42) 
SIM_Broad_MProResults_ligprep

>  <s_m_subgroupid>  (42) 
SIM_Broad_MProResults_ligprep

>  <b_m_subgroup_collapsed>  (42) 
0

$$$$
10255
     RDKit          2D

 17 19  0  0  1  0  0  0  0  0999 V2000
    1.0741    2.7039    0.0000 O   0  0  0  0  0  0  0  0  0  0  0  0
    1.0284    1.2046    0.0000 S   0  0  0  0  0  0  0  0  0  0  0  0
    2.3041    0.4154    0.0000 C   0  0  0  0  0  0  0  0  0  0  0  0
    2.2585   -1.0839    0.0000 C   0  0  0  0  0  0  0  0  0  0  0  0
    3.5341   -1.8731    0.0000 C   0  0  0  0  0  0  0  0  0  0  0  0
    4.8553   -1.1629    0.0000 C   0  0  0  0  0  0  0  0  0  0  0  0
    4.9010    0.3364    0.0000 C   0  0  0  0  0  0  0  0  0  0  0  0
    3.6253    1.1256    0.0000 C   0  0  0  0  0  0  0  0  0  0  0  0
   -0.2928    0.4944    0.0000 C   0  0  0  0  0  0  0  0  0  0  0  0
   -0.3384   -1.0049    0.0000 C   0  0  0  0  0  0  0  0  0  0  0  0
   -1.6597   -1.7150    0.0000 C   0  0  0  0  0  0  0  0  0  0  0  0
   -2.9353   -0.9259    0.0000 C   0  0  0  0  0  0  0  0  0  0  0  0
   -4.3753   -1.3458    0.0000 N   0  0  0  0  0  0  0  0  0  0  0  0
   -5.2197   -0.1060    0.0000 N   0  0  0  0  0  0  0  0  0  0  0  0
   -4.3015    1.0801    0.0000 N   0  0  0  0  0  0  0  0  0  0  0  0
   -2.8897    0.5734    0.0000 N   0  0  0  0  0  0  0  0  0  0  0  0
   -1.5684    1.2836    0.0000 N   0  0  0  0  0  0  0  0  0  0  0  0
  1  2  2  0
  2  3  1  0
  2  9  1  0
  3  4  2  0
  3  8  1  0
  4  5  1  0
  5  6  2  0
  6  7  1  0
  7  8  2  0
  9 10  1  0
  9 17  2  0
 10 11  2  0
 11 12  1  0
 12 13  2  0
 12 16  1  0
 13 14  1  0
 14 15  2  0
 15 16  1  0
 16 17  1  0
M  END
>  <s_m_entry_id>  (43) 
45

>  <s_m_entry_name>  (43) 
SIM_Broad_MProResults_ligprep.45

>  <Mol2_MolInfo_Name>  (43) 
10255

>  <Mol2_MolInfo_Type>  (43) 
SMALL

>  <Mol2_MolInfo_Charge>  (43) 
USER_CHARGES

>  <Mol2_Substructures>  (43) 
     1 UNK         1 GROUP             0       ****    0 ROOT    

>  <Name>  (43) 
10255

>  <s_m_Source_Path>  (43) 
/home/jgilaber/drug_learning/drug_learning/datasets/SARS2

>  <s_m_Source_File>  (43) 
SIM_Broad_MProResults_ligprep.sd

>  <i_m_Source_File_Index>  (43) 
45

>  <s_m_subgroup_title>  (43) 
SIM_Broad_MProResults_ligprep

>  <s_m_subgroupid>  (43) 
SIM_Broad_MProResults_ligprep

>  <b_m_subgroup_collapsed>  (43) 
0

$$$$
12338
     RDKit          2D

 22 24  0  0  1  0  0  0  0  0999 V2000
    2.2537   -2.9434    0.0000 Cl  0  0  0  0  0  0  0  0  0  0  0  0
    1.3633   -1.7363    0.0000 C   0  0  0  0  0  0  0  0  0  0  0  0
    1.8165   -0.3064    0.0000 C   0  0  0  0  0  0  0  0  0  0  0  0
    3.2397    0.1674    0.0000 N   0  0  0  0  0  0  0  0  0  0  0  0
    4.3616   -0.8282    0.0000 C   0  0  0  0  0  0  0  0  0  0  0  0
    5.7848   -0.3544    0.0000 C   0  0  0  0  0  0  0  0  0  0  0  0
    6.0861    1.1150    0.0000 O   0  0  0  0  0  0  0  0  0  0  0  0
    4.9642    2.1107    0.0000 C   0  0  0  0  0  0  0  0  0  0  0  0
    3.5410    1.6369    0.0000 C   0  0  0  0  0  0  0  0  0  0  0  0
    0.5967    0.5665    0.0000 C   0  0  0  0  0  0  0  0  0  0  0  0
    0.5858    2.0665    0.0000 O   0  0  0  0  0  0  0  0  0  0  0  0
   -0.6105   -0.3239    0.0000 N   0  0  0  0  0  0  0  0  0  0  0  0
   -0.1367   -1.7471    0.0000 C   0  0  0  0  0  0  0  0  0  0  0  0
   -1.0096   -2.9669    0.0000 O   0  0  0  0  0  0  0  0  0  0  0  0
   -2.0404    0.1293    0.0000 C   0  0  0  0  0  0  0  0  0  0  0  0
   -2.3628    1.5943    0.0000 C   0  0  0  0  0  0  0  0  0  0  0  0
   -3.7927    2.0475    0.0000 C   0  0  0  0  0  0  0  0  0  0  0  0
   -4.9002    1.0358    0.0000 C   0  0  0  0  0  0  0  0  0  0  0  0
   -6.3300    1.4890    0.0000 Cl  0  0  0  0  0  0  0  0  0  0  0  0
   -4.5777   -0.4292    0.0000 C   0  0  0  0  0  0  0  0  0  0  0  0
   -5.6852   -1.4409    0.0000 Cl  0  0  0  0  0  0  0  0  0  0  0  0
   -3.1478   -0.8824    0.0000 C   0  0  0  0  0  0  0  0  0  0  0  0
  1  2  1  0
  2  3  2  0
  2 13  1  0
  3  4  1  0
  3 10  1  0
  4  5  1  0
  4  9  1  0
  5  6  1  0
  6  7  1  0
  7  8  1  0
  8  9  1  0
 10 11  2  0
 10 12  1  0
 12 13  1  0
 12 15  1  0
 13 14  2  0
 15 16  2  0
 15 22  1  0
 16 17  1  0
 17 18  2  0
 18 19  1  0
 18 20  1  0
 20 21  1  0
 20 22  2  0
M  END
>  <s_m_entry_id>  (44) 
156

>  <s_m_entry_name>  (44) 
SIM_Broad_MProResults_ligprep.156

>  <Mol2_MolInfo_Name>  (44) 
12338

>  <Mol2_MolInfo_Type>  (44) 
SMALL

>  <Mol2_MolInfo_Charge>  (44) 
USER_CHARGES

>  <Mol2_Substructures>  (44) 
     1 UNK         1 GROUP             0       ****    0 ROOT    

>  <Name>  (44) 
12338

>  <s_m_Source_Path>  (44) 
/home/jgilaber/drug_learning/drug_learning/datasets/SARS2

>  <s_m_Source_File>  (44) 
SIM_Broad_MProResults_ligprep.sd

>  <i_m_Source_File_Index>  (44) 
156

>  <s_m_subgroup_title>  (44) 
SIM_Broad_MProResults_ligprep

>  <s_m_subgroupid>  (44) 
SIM_Broad_MProResults_ligprep

>  <b_m_subgroup_collapsed>  (44) 
0

$$$$
12667
     RDKit          2D

 14 15  0  0  1  0  0  0  0  0999 V2000
   -4.7685    1.4502    0.0000 C   0  0  0  0  0  0  0  0  0  0  0  0
   -3.2844    1.2324    0.0000 C   0  0  0  0  0  0  0  0  0  0  0  0
   -2.7310   -0.1618    0.0000 C   0  0  0  0  0  0  0  0  0  0  0  0
   -3.6617   -1.3382    0.0000 O   0  0  0  0  0  0  0  0  0  0  0  0
   -1.2469   -0.3797    0.0000 C   0  0  0  0  0  0  0  0  0  0  0  0
   -0.6935   -1.7739    0.0000 C   0  0  0  0  0  0  0  0  0  0  0  0
    0.7906   -1.9917    0.0000 C   0  0  0  0  0  0  0  0  0  0  0  0
    1.7213   -0.8154    0.0000 C   0  0  0  0  0  0  0  0  0  0  0  0
    3.2054   -1.0332    0.0000 C   0  0  0  0  0  0  0  0  0  0  0  0
    4.1361    0.1431    0.0000 C   0  0  0  0  0  0  0  0  0  0  0  0
    3.5827    1.5373    0.0000 C   0  0  0  0  0  0  0  0  0  0  0  0
    2.0986    1.7552    0.0000 C   0  0  0  0  0  0  0  0  0  0  0  0
    1.1679    0.5788    0.0000 C   0  0  0  0  0  0  0  0  0  0  0  0
   -0.3162    0.7967    0.0000 C   0  0  0  0  0  0  0  0  0  0  0  0
  1  2  2  0
  2  3  1  0
  3  4  2  0
  3  5  1  0
  5  6  2  0
  5 14  1  0
  6  7  1  0
  7  8  2  0
  8  9  1  0
  8 13  1  0
  9 10  2  0
 10 11  1  0
 11 12  2  0
 12 13  1  0
 13 14  2  0
M  END
>  <s_m_entry_id>  (45) 
168

>  <s_m_entry_name>  (45) 
SIM_Broad_MProResults_ligprep.168

>  <Mol2_MolInfo_Name>  (45) 
12667

>  <Mol2_MolInfo_Type>  (45) 
SMALL

>  <Mol2_MolInfo_Charge>  (45) 
USER_CHARGES

>  <Mol2_Substructures>  (45) 
     1 UNK         1 GROUP             0       ****    0 ROOT    

>  <Name>  (45) 
12667

>  <s_m_Source_Path>  (45) 
/home/jgilaber/drug_learning/drug_learning/datasets/SARS2

>  <s_m_Source_File>  (45) 
SIM_Broad_MProResults_ligprep.sd

>  <i_m_Source_File_Index>  (45) 
168

>  <s_m_subgroup_title>  (45) 
SIM_Broad_MProResults_ligprep

>  <s_m_subgroupid>  (45) 
SIM_Broad_MProResults_ligprep

>  <b_m_subgroup_collapsed>  (45) 
0

$$$$
11140
     RDKit          2D

 17 18  0  0  1  0  0  0  0  0999 V2000
    4.4444   -2.2597    0.0000 C   0  0  0  0  0  0  0  0  0  0  0  0
    4.3417   -0.7632    0.0000 O   0  0  0  0  0  0  0  0  0  0  0  0
    2.9943   -0.1039    0.0000 C   0  0  0  0  0  0  0  0  0  0  0  0
    1.7497   -0.9412    0.0000 C   0  0  0  0  0  0  0  0  0  0  0  0
    0.4023   -0.2819    0.0000 C   0  0  0  0  0  0  0  0  0  0  0  0
    0.2996    1.2146    0.0000 C   0  0  0  0  0  0  0  0  0  0  0  0
    1.5442    2.0518    0.0000 C   0  0  0  0  0  0  0  0  0  0  0  0
    2.8915    1.3925    0.0000 C   0  0  0  0  0  0  0  0  0  0  0  0
    4.1362    2.2298    0.0000 O   0  0  0  0  0  0  0  0  0  0  0  0
   -0.8423   -1.1192    0.0000 C   0  0  0  0  0  0  0  0  0  0  0  0
   -0.7395   -2.6156    0.0000 S   0  0  0  0  0  0  0  0  0  0  0  0
   -2.1896   -0.4599    0.0000 N   0  0  0  0  0  0  0  0  0  0  0  0
   -2.2924    1.0366    0.0000 C   0  0  0  0  0  0  0  0  0  0  0  0
   -3.6398    1.6958    0.0000 C   0  0  0  0  0  0  0  0  0  0  0  0
   -4.8844    0.8586    0.0000 O   0  0  0  0  0  0  0  0  0  0  0  0
   -4.7816   -0.6379    0.0000 C   0  0  0  0  0  0  0  0  0  0  0  0
   -3.4343   -1.2971    0.0000 C   0  0  0  0  0  0  0  0  0  0  0  0
  1  2  1  0
  2  3  1  0
  3  4  2  0
  3  8  1  0
  4  5  1  0
  5  6  2  0
  5 10  1  0
  6  7  1  0
  7  8  2  0
  8  9  1  0
 10 11  2  0
 10 12  1  0
 12 13  1  0
 12 17  1  0
 13 14  1  0
 14 15  1  0
 15 16  1  0
 16 17  1  0
M  END
>  <s_m_entry_id>  (46) 
104

>  <s_m_entry_name>  (46) 
SIM_Broad_MProResults_ligprep.104

>  <Mol2_MolInfo_Name>  (46) 
11140

>  <Mol2_MolInfo_Type>  (46) 
SMALL

>  <Mol2_MolInfo_Charge>  (46) 
USER_CHARGES

>  <Mol2_Substructures>  (46) 
     1 UNK         1 GROUP             0       ****    0 ROOT    

>  <Name>  (46) 
11140

>  <s_m_Source_Path>  (46) 
/home/jgilaber/drug_learning/drug_learning/datasets/SARS2

>  <s_m_Source_File>  (46) 
SIM_Broad_MProResults_ligprep.sd

>  <i_m_Source_File_Index>  (46) 
104

>  <s_m_subgroup_title>  (46) 
SIM_Broad_MProResults_ligprep

>  <s_m_subgroupid>  (46) 
SIM_Broad_MProResults_ligprep

>  <b_m_subgroup_collapsed>  (46) 
0

$$$$
8431
     RDKit          2D

 13 12  0  0  1  0  0  0  0  0999 V2000
    4.1268    0.7641    0.0000 C   0  0  0  0  0  0  0  0  0  0  0  0
    3.4289   -0.5637    0.0000 N   0  0  0  0  0  0  0  0  0  0  0  0
    1.9301   -0.6233    0.0000 C   0  0  0  0  0  0  0  0  0  0  0  0
    1.2323   -1.9511    0.0000 O   0  0  0  0  0  0  0  0  0  0  0  0
    1.1291    0.6449    0.0000 O   0  0  0  0  0  0  0  0  0  0  0  0
   -0.3697    0.5853    0.0000 N   0  0  0  0  0  0  0  0  0  0  0  0
   -1.1707    1.8536    0.0000 C   0  0  0  0  0  0  0  0  0  0  0  0
   -0.4729    3.1814    0.0000 O   0  0  0  0  0  0  0  0  0  0  0  0
   -2.6695    1.7940    0.0000 C   0  0  0  0  0  0  0  0  0  0  0  0
   -1.0675   -0.7425    0.0000 C   0  0  0  0  0  0  0  0  0  0  0  0
   -0.2665   -2.0107    0.0000 O   0  0  0  0  0  0  0  0  0  0  0  0
   -2.5663   -0.8021    0.0000 N   0  0  0  0  0  0  0  0  0  0  0  0
   -3.2641   -2.1299    0.0000 C   0  0  0  0  0  0  0  0  0  0  0  0
  1  2  1  0
  2  3  1  0
  3  4  2  0
  3  5  1  0
  5  6  1  0
  6  7  1  0
  6 10  1  0
  7  8  2  0
  7  9  1  0
 10 11  2  0
 10 12  1  0
 12 13  1  0
M  END
>  <s_m_entry_id>  (47) 
229

>  <s_m_entry_name>  (47) 
SIM_Broad_MProResults_ligprep.229

>  <Mol2_MolInfo_Name>  (47) 
8431

>  <Mol2_MolInfo_Type>  (47) 
SMALL

>  <Mol2_MolInfo_Charge>  (47) 
USER_CHARGES

>  <Mol2_Substructures>  (47) 
     1 ****        1 GROUP             0       ****    0 ROOT    

>  <Name>  (47) 
8431

>  <s_m_Source_Path>  (47) 
/home/jgilaber/drug_learning/drug_learning/datasets/SARS2

>  <s_m_Source_File>  (47) 
SIM_Broad_MProResults_ligprep.sd

>  <i_m_Source_File_Index>  (47) 
229

>  <s_m_subgroup_title>  (47) 
SIM_Broad_MProResults_ligprep

>  <s_m_subgroupid>  (47) 
SIM_Broad_MProResults_ligprep

>  <b_m_subgroup_collapsed>  (47) 
0

$$$$
3813
     RDKit          2D

 32 36  0  0  1  0  0  0  0  0999 V2000
   -0.5873   -8.7206    0.0000 C   0  0  0  0  0  0  0  0  0  0  0  0
   -0.0157   -7.3338    0.0000 C   0  0  0  0  0  0  0  0  0  0  0  0
    1.4712   -7.1355    0.0000 C   0  0  0  0  0  0  0  0  0  0  0  0
   -0.9308   -6.1453    0.0000 C   0  0  0  0  0  0  0  0  0  0  0  0
   -0.5073   -4.7064    0.0000 C   0  0  0  0  0  0  0  0  0  0  0  0
   -1.7449   -3.8589    0.0000 C   0  0  0  0  0  0  0  0  0  0  0  0
   -1.7867   -2.3595    0.0000 C   0  0  0  0  0  0  0  0  0  0  0  0
   -0.5091   -1.5735    0.0000 N   0  0  0  0  0  0  0  0  0  0  0  0
   -0.5509   -0.0741    0.0000 C   0  0  0  0  0  0  0  0  0  0  0  0
    0.7267    0.7118    0.0000 N   0  0  0  0  0  0  0  0  0  0  0  0
    0.6849    2.2112    0.0000 C   0  0  0  0  0  0  0  0  0  0  0  0
    1.9625    2.9972    0.0000 N   0  0  0  0  0  0  0  0  0  0  0  0
    3.2819    2.2837    0.0000 C   0  0  0  0  0  0  0  0  0  0  0  0
    4.6347    2.9317    0.0000 C   0  0  0  0  0  0  0  0  0  0  0  0
    5.6691    1.8454    0.0000 C   0  0  0  0  0  0  0  0  0  0  0  0
    4.9556    0.5260    0.0000 N   0  0  0  0  0  0  0  0  0  0  0  0
    3.4803    0.7968    0.0000 N   0  0  0  0  0  0  0  0  0  0  0  0
    7.1559    2.0438    0.0000 C   0  0  0  0  0  0  0  0  0  0  0  0
    8.3444    2.9589    0.0000 C   0  0  0  0  0  0  0  0  0  0  0  0
    8.5427    1.4721    0.0000 C   0  0  0  0  0  0  0  0  0  0  0  0
   -0.6346    2.9247    0.0000 C   0  0  0  0  0  0  0  0  0  0  0  0
   -1.9122    2.1388    0.0000 C   0  0  0  0  0  0  0  0  0  0  0  0
   -1.8704    0.6394    0.0000 N   0  0  0  0  0  0  0  0  0  0  0  0
   -3.2316    2.8523    0.0000 N   0  0  0  0  0  0  0  0  0  0  0  0
   -3.2735    4.3517    0.0000 C   0  0  0  0  0  0  0  0  0  0  0  0
   -4.5929    5.0652    0.0000 C   0  0  0  0  0  0  0  0  0  0  0  0
   -5.8705    4.2793    0.0000 N   0  0  0  0  0  0  0  0  0  0  0  0
   -7.1900    4.9927    0.0000 C   0  0  0  0  0  0  0  0  0  0  0  0
   -5.8287    2.7798    0.0000 C   0  0  0  0  0  0  0  0  0  0  0  0
   -4.5093    2.0663    0.0000 C   0  0  0  0  0  0  0  0  0  0  0  0
   -2.9334   -4.7741    0.0000 O   0  0  0  0  0  0  0  0  0  0  0  0
   -2.4302   -6.1872    0.0000 N   0  0  0  0  0  0  0  0  0  0  0  0
  1  2  1  0
  2  3  1  0
  2  4  1  0
  4  5  1  0
  4 32  2  0
  5  6  2  0
  6  7  1  0
  6 31  1  0
  7  8  1  0
  8  9  1  0
  9 10  2  0
  9 23  1  0
 10 11  1  0
 11 12  1  0
 11 21  2  0
 12 13  1  0
 13 14  1  0
 13 17  2  0
 14 15  2  0
 15 16  1  0
 15 18  1  0
 16 17  1  0
 18 19  1  0
 18 20  1  0
 19 20  1  0
 21 22  1  0
 22 23  2  0
 22 24  1  0
 24 25  1  0
 24 30  1  0
 25 26  1  0
 26 27  1  0
 27 28  1  0
 27 29  1  0
 29 30  1  0
 31 32  1  0
M  CHG  1  27   1
M  END
>  <s_m_entry_id>  (48) 
249

>  <s_m_entry_name>  (48) 
SIM_Broad_MProResults_ligprep.249

>  <Mol2_MolInfo_Name>  (48) 
3813

>  <Mol2_MolInfo_Type>  (48) 
SMALL

>  <Mol2_MolInfo_Charge>  (48) 
USER_CHARGES

>  <Mol2_Substructures>  (48) 
     1 UNK         1 GROUP             0       ****    0 ROOT    

>  <Name>  (48) 
3813

>  <s_m_Source_Path>  (48) 
/home/jgilaber/drug_learning/drug_learning/datasets/SARS2

>  <s_m_Source_File>  (48) 
SIM_Broad_MProResults_ligprep.sd

>  <i_m_Source_File_Index>  (48) 
249

>  <s_m_subgroup_title>  (48) 
SIM_Broad_MProResults_ligprep

>  <s_m_subgroupid>  (48) 
SIM_Broad_MProResults_ligprep

>  <b_m_subgroup_collapsed>  (48) 
0

$$$$
10124
     RDKit          2D

 62 69  0  0  1  0  0  0  0  0999 V2000
  -10.5923    3.5558    0.0000 O   0  0  0  0  0  0  0  0  0  0  0  0
  -10.8291    2.0746    0.0000 C   0  0  0  0  0  0  0  0  0  0  0  0
   -9.6648    1.1289    0.0000 C   0  0  0  0  0  0  0  0  0  0  0  0
   -8.2637    1.6644    0.0000 O   0  0  0  0  0  0  0  0  0  0  0  0
   -7.0993    0.7187    0.0000 C   0  0  0  0  0  0  0  0  0  0  0  0
   -5.6982    1.2542    0.0000 O   0  0  0  0  0  0  0  0  0  0  0  0
   -4.5339    0.3085    0.0000 C   0  0  0  0  0  0  0  0  0  0  0  0
   -4.7707   -1.1727    0.0000 C   0  0  0  0  0  0  0  0  0  0  0  0
   -3.6064   -2.1184    0.0000 C   0  0  0  0  0  0  0  0  0  0  0  0
   -2.2052   -1.5830    0.0000 C   0  0  0  0  0  0  0  0  0  0  0  0
   -1.9684   -0.1018    0.0000 C   0  0  0  0  0  0  0  0  0  0  0  0
   -0.5672    0.4337    0.0000 C   0  0  0  0  0  0  0  0  0  0  0  0
    0.5971   -0.5120    0.0000 C   0  0  0  0  0  0  0  0  0  0  0  0
    1.9983    0.0235    0.0000 C   0  0  0  0  0  0  0  0  0  0  0  0
    2.2351    1.5047    0.0000 C   0  0  0  0  0  0  0  0  0  0  0  0
    3.6363    2.0401    0.0000 C   0  0  0  0  0  0  0  0  0  0  0  0
    4.8006    1.0944    0.0000 C   0  0  0  0  0  0  0  0  0  0  0  0
    4.5638   -0.3867    0.0000 C   0  0  0  0  0  0  0  0  0  0  0  0
    5.7281   -1.3324    0.0000 O   0  0  0  0  0  0  0  0  0  0  0  0
    7.1293   -0.7970    0.0000 C   0  0  0  0  0  0  0  0  0  0  0  0
    7.3661    0.6842    0.0000 O   0  0  0  0  0  0  0  0  0  0  0  0
    8.7673    1.2197    0.0000 C   0  0  0  0  0  0  0  0  0  0  0  0
    9.0041    2.7009    0.0000 C   0  0  0  0  0  0  0  0  0  0  0  0
    7.8398    3.6466    0.0000 O   0  0  0  0  0  0  0  0  0  0  0  0
    9.9316    0.2740    0.0000 C   0  0  0  0  0  0  0  0  0  0  0  0
   11.3327    0.8095    0.0000 O   0  0  0  0  0  0  0  0  0  0  0  0
    9.6947   -1.2072    0.0000 C   0  0  0  0  0  0  0  0  0  0  0  0
   10.8591   -2.1529    0.0000 O   0  0  0  0  0  0  0  0  0  0  0  0
    8.2936   -1.7427    0.0000 C   0  0  0  0  0  0  0  0  0  0  0  0
    8.0567   -3.2239    0.0000 O   0  0  0  0  0  0  0  0  0  0  0  0
    3.1626   -0.9222    0.0000 C   0  0  0  0  0  0  0  0  0  0  0  0
    2.9258   -2.4034    0.0000 C   0  0  0  0  0  0  0  0  0  0  0  0
    4.0901   -3.3491    0.0000 O   0  0  0  0  0  0  0  0  0  0  0  0
    1.5246   -2.9389    0.0000 C   0  0  0  0  0  0  0  0  0  0  0  0
    1.2878   -4.4201    0.0000 C   0  0  0  0  0  0  0  0  0  0  0  0
    2.4521   -5.3658    0.0000 O   0  0  0  0  0  0  0  0  0  0  0  0
   -0.1134   -4.9555    0.0000 C   0  0  0  0  0  0  0  0  0  0  0  0
   -1.2777   -4.0098    0.0000 C   0  0  0  0  0  0  0  0  0  0  0  0
   -1.0409   -2.5287    0.0000 C   0  0  0  0  0  0  0  0  0  0  0  0
    0.3603   -1.9932    0.0000 C   0  0  0  0  0  0  0  0  0  0  0  0
   -2.6789   -4.5453    0.0000 C   0  0  0  0  0  0  0  0  0  0  0  0
   -3.8432   -3.5996    0.0000 O   0  0  0  0  0  0  0  0  0  0  0  0
   -2.9157   -6.0265    0.0000 O   0  0  0  0  0  0  0  0  0  0  0  0
   -0.3304    1.9149    0.0000 C   0  0  0  0  0  0  0  0  0  0  0  0
    1.0708    2.4504    0.0000 C   0  0  0  0  0  0  0  0  0  0  0  0
    1.3076    3.9316    0.0000 C   0  0  0  0  0  0  0  0  0  0  0  0
    0.1433    4.8773    0.0000 C   0  0  0  0  0  0  0  0  0  0  0  0
   -1.2578    4.3418    0.0000 C   0  0  0  0  0  0  0  0  0  0  0  0
   -2.4222    5.2875    0.0000 O   0  0  0  0  0  0  0  0  0  0  0  0
   -1.4947    2.8606    0.0000 C   0  0  0  0  0  0  0  0  0  0  0  0
   -2.8958    2.3251    0.0000 C   0  0  0  0  0  0  0  0  0  0  0  0
   -4.0602    3.2708    0.0000 O   0  0  0  0  0  0  0  0  0  0  0  0
   -3.1327    0.8439    0.0000 C   0  0  0  0  0  0  0  0  0  0  0  0
    2.7088    4.4670    0.0000 C   0  0  0  0  0  0  0  0  0  0  0  0
    3.8731    3.5213    0.0000 O   0  0  0  0  0  0  0  0  0  0  0  0
    2.9457    5.9482    0.0000 O   0  0  0  0  0  0  0  0  0  0  0  0
   -7.3362   -0.7625    0.0000 C   0  0  0  0  0  0  0  0  0  0  0  0
   -6.1719   -1.7082    0.0000 O   0  0  0  0  0  0  0  0  0  0  0  0
   -8.7373   -1.2980    0.0000 C   0  0  0  0  0  0  0  0  0  0  0  0
   -8.9742   -2.7792    0.0000 O   0  0  0  0  0  0  0  0  0  0  0  0
   -9.9017   -0.3523    0.0000 C   0  0  0  0  0  0  0  0  0  0  0  0
  -11.3028   -0.8878    0.0000 O   0  0  0  0  0  0  0  0  0  0  0  0
  1  2  1  0
  2  3  1  0
  3  4  1  0
  3 61  1  0
  4  5  1  0
  5  6  1  0
  5 57  1  0
  6  7  1  0
  7  8  2  0
  7 53  1  0
  8  9  1  0
  9 10  2  0
 10 11  1  0
 11 12  1  0
 11 53  2  0
 12 13  1  0
 12 44  1  0
 13 14  1  0
 13 40  1  0
 14 15  2  0
 14 31  1  0
 15 16  1  0
 16 17  2  0
 17 18  1  0
 18 19  1  0
 18 31  2  0
 19 20  1  0
 20 21  1  0
 20 29  1  0
 21 22  1  0
 22 23  1  0
 22 25  1  0
 23 24  1  0
 25 26  1  0
 25 27  1  0
 27 28  1  0
 27 29  1  0
 29 30  1  0
 31 32  1  0
 32 33  2  0
 32 34  1  0
 34 35  2  0
 34 40  1  0
 35 36  1  0
 35 37  1  0
 37 38  2  0
 38 39  1  0
 38 41  1  0
 39 40  2  0
 41 42  2  0
 41 43  1  0
 44 45  2  0
 44 50  1  0
 45 46  1  0
 46 47  2  0
 46 54  1  0
 47 48  1  0
 48 49  1  0
 48 50  2  0
 50 51  1  0
 51 52  2  0
 51 53  1  0
 54 55  2  0
 54 56  1  0
 57 58  1  0
 57 59  1  0
 59 60  1  0
 59 61  1  0
 61 62  1  0
M  CHG  2  43  -1  56  -1
M  END
>  <s_m_entry_id>  (49) 
42

>  <s_m_entry_name>  (49) 
SIM_Broad_MProResults_ligprep.42

>  <Mol2_MolInfo_Name>  (49) 
10124

>  <Mol2_MolInfo_Type>  (49) 
SMALL

>  <Mol2_MolInfo_Charge>  (49) 
USER_CHARGES

>  <Mol2_Substructures>  (49) 
     1 UNK         1 GROUP             0       ****    0 ROOT    

>  <Name>  (49) 
10124

>  <s_m_Source_Path>  (49) 
/home/jgilaber/drug_learning/drug_learning/datasets/SARS2

>  <s_m_Source_File>  (49) 
SIM_Broad_MProResults_ligprep.sd

>  <i_m_Source_File_Index>  (49) 
42

>  <s_m_subgroup_title>  (49) 
SIM_Broad_MProResults_ligprep

>  <s_m_subgroupid>  (49) 
SIM_Broad_MProResults_ligprep

>  <b_m_subgroup_collapsed>  (49) 
0

$$$$
12523
     RDKit          2D

 10  9  0  0  1  0  0  0  0  0999 V2000
   -3.1604    0.8364    0.0000 O   0  0  0  0  0  0  0  0  0  0  0  0
   -1.9822   -0.0920    0.0000 C   0  0  0  0  0  0  0  0  0  0  0  0
   -2.1971   -1.5765    0.0000 O   0  0  0  0  0  0  0  0  0  0  0  0
   -0.5891    0.4642    0.0000 C   0  0  0  0  0  0  0  0  0  0  0  0
   -0.3742    1.9487    0.0000 S   0  0  0  0  0  0  0  0  0  0  0  0
    0.5891   -0.4642    0.0000 C   0  0  0  0  0  0  0  0  0  0  0  0
    0.3742   -1.9487    0.0000 S   0  0  0  0  0  0  0  0  0  0  0  0
    1.9822    0.0920    0.0000 C   0  0  0  0  0  0  0  0  0  0  0  0
    2.1971    1.5765    0.0000 O   0  0  0  0  0  0  0  0  0  0  0  0
    3.1604   -0.8364    0.0000 O   0  0  0  0  0  0  0  0  0  0  0  0
  1  2  1  0
  2  3  2  0
  2  4  1  0
  4  5  1  0
  4  6  1  0
  6  7  1  0
  6  8  1  0
  8  9  2  0
  8 10  1  0
M  CHG  2   1  -1  10  -1
M  END
>  <s_m_entry_id>  (50) 
161

>  <s_m_entry_name>  (50) 
SIM_Broad_MProResults_ligprep.161

>  <Mol2_MolInfo_Name>  (50) 
12523

>  <Mol2_MolInfo_Type>  (50) 
SMALL

>  <Mol2_MolInfo_Charge>  (50) 
USER_CHARGES

>  <Mol2_Substructures>  (50) 
     1 UNK         1 GROUP             0       ****    0 ROOT    

>  <Name>  (50) 
12523

>  <s_m_Source_Path>  (50) 
/home/jgilaber/drug_learning/drug_learning/datasets/SARS2

>  <s_m_Source_File>  (50) 
SIM_Broad_MProResults_ligprep.sd

>  <i_m_Source_File_Index>  (50) 
161

>  <s_m_subgroup_title>  (50) 
SIM_Broad_MProResults_ligprep

>  <s_m_subgroupid>  (50) 
SIM_Broad_MProResults_ligprep

>  <b_m_subgroup_collapsed>  (50) 
0

$$$$
11806
     RDKit          2D

 10 11  0  0  1  0  0  0  0  0999 V2000
   -3.6907   -0.0000    0.0000 S   0  0  0  0  0  0  0  0  0  0  0  0
   -2.1907   -0.0000    0.0000 C   0  0  0  0  0  0  0  0  0  0  0  0
   -1.3090   -1.2135    0.0000 N   0  0  0  0  0  0  0  0  0  0  0  0
    0.1175   -0.7500    0.0000 C   0  0  0  0  0  0  0  0  0  0  0  0
    1.4166   -1.5000    0.0000 C   0  0  0  0  0  0  0  0  0  0  0  0
    2.7156   -0.7500    0.0000 C   0  0  0  0  0  0  0  0  0  0  0  0
    2.7156    0.7500    0.0000 C   0  0  0  0  0  0  0  0  0  0  0  0
    1.4166    1.5000    0.0000 C   0  0  0  0  0  0  0  0  0  0  0  0
    0.1175    0.7500    0.0000 C   0  0  0  0  0  0  0  0  0  0  0  0
   -1.3090    1.2135    0.0000 S   0  0  0  0  0  0  0  0  0  0  0  0
  1  2  1  0
  2  3  2  0
  2 10  1  0
  3  4  1  0
  4  5  2  0
  4  9  1  0
  5  6  1  0
  6  7  2  0
  7  8  1  0
  8  9  2  0
  9 10  1  0
M  END
>  <s_m_entry_id>  (51) 
138

>  <s_m_entry_name>  (51) 
SIM_Broad_MProResults_ligprep.138

>  <Mol2_MolInfo_Name>  (51) 
11806

>  <Mol2_MolInfo_Type>  (51) 
SMALL

>  <Mol2_MolInfo_Charge>  (51) 
USER_CHARGES

>  <Mol2_Substructures>  (51) 
     1 UNK         1 GROUP             0       ****    0 ROOT    

>  <Name>  (51) 
11806

>  <s_m_Source_Path>  (51) 
/home/jgilaber/drug_learning/drug_learning/datasets/SARS2

>  <s_m_Source_File>  (51) 
SIM_Broad_MProResults_ligprep.sd

>  <i_m_Source_File_Index>  (51) 
138

>  <s_m_subgroup_title>  (51) 
SIM_Broad_MProResults_ligprep

>  <s_m_subgroupid>  (51) 
SIM_Broad_MProResults_ligprep

>  <b_m_subgroup_collapsed>  (51) 
0

$$$$
10491
     RDKit          2D

 27 29  0  0  1  0  0  0  0  0999 V2000
   -4.5949   -2.5144    0.0000 C   0  0  0  0  0  0  0  0  0  0  0  0
   -3.3226   -1.7200    0.0000 N   0  0  0  0  0  0  0  0  0  0  0  0
   -1.9984   -2.4246    0.0000 C   0  0  0  0  0  0  0  0  0  0  0  0
   -1.9466   -3.9237    0.0000 O   0  0  0  0  0  0  0  0  0  0  0  0
   -0.7261   -1.6301    0.0000 C   0  0  0  0  0  0  0  0  0  0  0  0
    0.5981   -2.3348    0.0000 C   0  0  0  0  0  0  0  0  0  0  0  0
    1.8705   -1.5403    0.0000 C   0  0  0  0  0  0  0  0  0  0  0  0
    1.8186   -0.0412    0.0000 C   0  0  0  0  0  0  0  0  0  0  0  0
    0.4944    0.6634    0.0000 C   0  0  0  0  0  0  0  0  0  0  0  0
   -0.7779   -0.1310    0.0000 C   0  0  0  0  0  0  0  0  0  0  0  0
    0.4426    2.1625    0.0000 N   0  0  0  0  0  0  0  0  0  0  0  0
   -0.8816    2.8672    0.0000 O   0  0  0  0  0  0  0  0  0  0  0  0
    1.7149    2.9570    0.0000 O   0  0  0  0  0  0  0  0  0  0  0  0
    3.0909    0.7532    0.0000 S   0  0  0  0  0  0  0  0  0  0  0  0
    3.0391    2.2523    0.0000 O   0  0  0  0  0  0  0  0  0  0  0  0
    4.4151    0.0486    0.0000 C   0  0  0  0  0  0  0  0  0  0  0  0
    5.7635    0.7057    0.0000 N   0  0  0  0  0  0  0  0  0  0  0  0
    6.8052   -0.3737    0.0000 C   0  0  0  0  0  0  0  0  0  0  0  0
    6.1005   -1.6979    0.0000 C   0  0  0  0  0  0  0  0  0  0  0  0
    4.6234   -1.4369    0.0000 S   0  0  0  0  0  0  0  0  0  0  0  0
   -3.3744   -0.2209    0.0000 C   0  0  0  0  0  0  0  0  0  0  0  0
   -2.1021    0.5736    0.0000 C   0  0  0  0  0  0  0  0  0  0  0  0
   -2.1540    2.0727    0.0000 C   0  0  0  0  0  0  0  0  0  0  0  0
   -3.4781    2.7774    0.0000 C   0  0  0  0  0  0  0  0  0  0  0  0
   -4.7505    1.9829    0.0000 C   0  0  0  0  0  0  0  0  0  0  0  0
   -4.6986    0.4838    0.0000 C   0  0  0  0  0  0  0  0  0  0  0  0
   -5.9710   -0.3107    0.0000 C   0  0  0  0  0  0  0  0  0  0  0  0
  1  2  1  0
  2  3  1  0
  2 21  1  0
  3  4  2  0
  3  5  1  0
  5  6  2  0
  5 10  1  0
  6  7  1  0
  7  8  2  0
  8  9  1  0
  8 14  1  0
  9 10  2  0
  9 11  1  0
 11 12  2  0
 11 13  1  0
 14 15  2  0
 14 16  1  0
 16 17  2  0
 16 20  1  0
 17 18  1  0
 18 19  2  0
 19 20  1  0
 21 22  2  0
 21 26  1  0
 22 23  1  0
 23 24  2  0
 24 25  1  0
 25 26  2  0
 26 27  1  0
M  CHG  2  11   1  13  -1
M  END
>  <s_m_entry_id>  (52) 
72

>  <s_m_entry_name>  (52) 
SIM_Broad_MProResults_ligprep.72

>  <Mol2_MolInfo_Name>  (52) 
10491

>  <Mol2_MolInfo_Type>  (52) 
SMALL

>  <Mol2_MolInfo_Charge>  (52) 
USER_CHARGES

>  <Mol2_Substructures>  (52) 
     1 UNK         1 GROUP             0       ****    0 ROOT    

>  <Name>  (52) 
10491

>  <s_m_Source_Path>  (52) 
/home/jgilaber/drug_learning/drug_learning/datasets/SARS2

>  <s_m_Source_File>  (52) 
SIM_Broad_MProResults_ligprep.sd

>  <i_m_Source_File_Index>  (52) 
72

>  <s_m_subgroup_title>  (52) 
SIM_Broad_MProResults_ligprep

>  <s_m_subgroupid>  (52) 
SIM_Broad_MProResults_ligprep

>  <b_m_subgroup_collapsed>  (52) 
0

$$$$
6864
     RDKit          2D

 17 19  0  0  1  0  0  0  0  0999 V2000
   -0.0000   -2.6471    0.0000 C   0  0  0  0  0  0  0  0  0  0  0  0
   -0.0000   -1.1471    0.0000 N   0  0  0  0  0  0  0  0  0  0  0  0
    1.2990   -0.3971    0.0000 C   0  0  0  0  0  0  0  0  0  0  0  0
    2.5981   -1.1471    0.0000 C   0  0  0  0  0  0  0  0  0  0  0  0
    3.8971   -0.3971    0.0000 C   0  0  0  0  0  0  0  0  0  0  0  0
    5.1962   -1.1471    0.0000 N   0  0  0  0  0  0  0  0  0  0  0  0
    3.8971    1.1029    0.0000 C   0  0  0  0  0  0  0  0  0  0  0  0
    2.5981    1.8529    0.0000 C   0  0  0  0  0  0  0  0  0  0  0  0
    1.2990    1.1029    0.0000 C   0  0  0  0  0  0  0  0  0  0  0  0
    0.0000    1.8529    0.0000 C   0  0  0  0  0  0  0  0  0  0  0  0
   -1.2990    1.1029    0.0000 C   0  0  0  0  0  0  0  0  0  0  0  0
   -2.5981    1.8529    0.0000 C   0  0  0  0  0  0  0  0  0  0  0  0
   -3.8971    1.1029    0.0000 C   0  0  0  0  0  0  0  0  0  0  0  0
   -3.8971   -0.3971    0.0000 C   0  0  0  0  0  0  0  0  0  0  0  0
   -5.1962   -1.1471    0.0000 N   0  0  0  0  0  0  0  0  0  0  0  0
   -2.5981   -1.1471    0.0000 C   0  0  0  0  0  0  0  0  0  0  0  0
   -1.2990   -0.3971    0.0000 C   0  0  0  0  0  0  0  0  0  0  0  0
  1  2  1  0
  2  3  1  0
  2 17  1  0
  3  4  2  0
  3  9  1  0
  4  5  1  0
  5  6  2  0
  5  7  1  0
  7  8  2  0
  8  9  1  0
  9 10  2  0
 10 11  1  0
 11 12  1  0
 11 17  2  0
 12 13  2  0
 13 14  1  0
 14 15  1  0
 14 16  2  0
 16 17  1  0
M  END
>  <s_m_entry_id>  (53) 
270

>  <s_m_entry_name>  (53) 
SIM_Broad_MProResults_ligprep.270

>  <Mol2_MolInfo_Name>  (53) 
6864

>  <Mol2_MolInfo_Type>  (53) 
SMALL

>  <Mol2_MolInfo_Charge>  (53) 
USER_CHARGES

>  <Mol2_Substructures>  (53) 
     1 UNK         1 GROUP             0       ****    0 ROOT    

>  <Name>  (53) 
6864

>  <s_m_Source_Path>  (53) 
/home/jgilaber/drug_learning/drug_learning/datasets/SARS2

>  <s_m_Source_File>  (53) 
SIM_Broad_MProResults_ligprep.sd

>  <i_m_Source_File_Index>  (53) 
270

>  <s_m_subgroup_title>  (53) 
SIM_Broad_MProResults_ligprep

>  <s_m_subgroupid>  (53) 
SIM_Broad_MProResults_ligprep

>  <b_m_subgroup_collapsed>  (53) 
0

$$$$
10853
     RDKit          2D

 16 18  0  0  1  0  0  0  0  0999 V2000
   -4.2925   -0.7270    0.0000 C   0  0  0  0  0  0  0  0  0  0  0  0
   -3.0690    0.1408    0.0000 N   0  0  0  0  0  0  0  0  0  0  0  0
   -3.0519    1.6407    0.0000 C   0  0  0  0  0  0  0  0  0  0  0  0
   -1.6201    2.0879    0.0000 C   0  0  0  0  0  0  0  0  0  0  0  0
   -0.7523    0.8645    0.0000 C   0  0  0  0  0  0  0  0  0  0  0  0
    0.1431    2.0679    0.0000 C   0  0  0  0  0  0  0  0  0  0  0  0
   -1.6478   -0.3389    0.0000 C   0  0  0  0  0  0  0  0  0  0  0  0
   -0.7800   -1.5624    0.0000 N   0  0  0  0  0  0  0  0  0  0  0  0
   -1.2597   -2.9836    0.0000 C   0  0  0  0  0  0  0  0  0  0  0  0
    0.6518   -1.1152    0.0000 C   0  0  0  0  0  0  0  0  0  0  0  0
    1.9422   -1.8799    0.0000 C   0  0  0  0  0  0  0  0  0  0  0  0
    3.2497   -1.1447    0.0000 C   0  0  0  0  0  0  0  0  0  0  0  0
    3.2668    0.3552    0.0000 C   0  0  0  0  0  0  0  0  0  0  0  0
    4.5743    1.0903    0.0000 O   0  0  0  0  0  0  0  0  0  0  0  0
    1.9764    1.1199    0.0000 C   0  0  0  0  0  0  0  0  0  0  0  0
    0.6689    0.3847    0.0000 C   0  0  0  0  0  0  0  0  0  0  0  0
  1  2  1  0
  2  3  1  0
  2  7  1  0
  3  4  1  0
  4  5  1  0
  5  6  1  0
  5  7  1  0
  5 16  1  0
  7  8  1  0
  8  9  1  0
  8 10  1  0
 10 11  1  0
 10 16  2  0
 11 12  2  0
 12 13  1  0
 13 14  1  0
 13 15  2  0
 15 16  1  0
M  CHG  1   2   1
M  END
>  <s_m_entry_id>  (54) 
94

>  <s_m_entry_name>  (54) 
SIM_Broad_MProResults_ligprep.94

>  <Mol2_MolInfo_Name>  (54) 
10853

>  <Mol2_MolInfo_Type>  (54) 
SMALL

>  <Mol2_MolInfo_Charge>  (54) 
USER_CHARGES

>  <Mol2_Substructures>  (54) 
     1 UNK         1 GROUP             0       ****    0 ROOT    

>  <Name>  (54) 
10853

>  <s_m_Source_Path>  (54) 
/home/jgilaber/drug_learning/drug_learning/datasets/SARS2

>  <s_m_Source_File>  (54) 
SIM_Broad_MProResults_ligprep.sd

>  <i_m_Source_File_Index>  (54) 
94

>  <s_m_subgroup_title>  (54) 
SIM_Broad_MProResults_ligprep

>  <s_m_subgroupid>  (54) 
SIM_Broad_MProResults_ligprep

>  <b_m_subgroup_collapsed>  (54) 
0

$$$$
11674
     RDKit          2D

 25 28  0  0  1  0  0  0  0  0999 V2000
    0.6848    1.4199    0.0000 C   0  0  0  0  0  0  0  0  0  0  0  0
   -0.8101    1.2958    0.0000 C   0  0  0  0  0  0  0  0  0  0  0  0
   -1.4500   -0.0609    0.0000 N   0  0  0  0  0  0  0  0  0  0  0  0
   -2.9236   -0.3406    0.0000 C   0  0  0  0  0  0  0  0  0  0  0  0
   -3.1130   -1.8286    0.0000 N   0  0  0  0  0  0  0  0  0  0  0  0
   -1.7563   -2.4685    0.0000 C   0  0  0  0  0  0  0  0  0  0  0  0
   -1.3241   -3.9049    0.0000 C   0  0  0  0  0  0  0  0  0  0  0  0
    0.1360   -4.2487    0.0000 N   0  0  0  0  0  0  0  0  0  0  0  0
    1.1638   -3.1562    0.0000 C   0  0  0  0  0  0  0  0  0  0  0  0
    0.7315   -1.7199    0.0000 C   0  0  0  0  0  0  0  0  0  0  0  0
    1.7593   -0.6273    0.0000 C   0  0  0  0  0  0  0  0  0  0  0  0
    3.2194   -0.9712    0.0000 N   0  0  0  0  0  0  0  0  0  0  0  0
    4.2472    0.1213    0.0000 C   0  0  0  0  0  0  0  0  0  0  0  0
    5.7073   -0.2225    0.0000 C   0  0  0  0  0  0  0  0  0  0  0  0
    6.7351    0.8700    0.0000 C   0  0  0  0  0  0  0  0  0  0  0  0
    6.3028    2.3064    0.0000 N   0  0  0  0  0  0  0  0  0  0  0  0
    4.8428    2.6502    0.0000 C   0  0  0  0  0  0  0  0  0  0  0  0
    3.8150    1.5577    0.0000 C   0  0  0  0  0  0  0  0  0  0  0  0
   -0.7285   -1.3760    0.0000 C   0  0  0  0  0  0  0  0  0  0  0  0
   -4.0162    0.6872    0.0000 C   0  0  0  0  0  0  0  0  0  0  0  0
   -5.4899    0.4074    0.0000 N   0  0  0  0  0  0  0  0  0  0  0  0
   -6.2113    1.7226    0.0000 O   0  0  0  0  0  0  0  0  0  0  0  0
   -5.1835    2.8151    0.0000 N   0  0  0  0  0  0  0  0  0  0  0  0
   -3.8268    2.1752    0.0000 C   0  0  0  0  0  0  0  0  0  0  0  0
   -2.5117    2.8966    0.0000 N   0  0  0  0  0  0  0  0  0  0  0  0
  1  2  1  0
  2  3  1  0
  3  4  1  0
  3 19  1  0
  4  5  2  0
  4 20  1  0
  5  6  1  0
  6  7  1  0
  6 19  2  0
  7  8  2  0
  8  9  1  0
  9 10  2  0
 10 11  1  0
 10 19  1  0
 11 12  1  0
 12 13  1  0
 13 14  1  0
 13 18  1  0
 14 15  1  0
 15 16  1  0
 16 17  1  0
 17 18  1  0
 20 21  2  0
 20 24  1  0
 21 22  1  0
 22 23  1  0
 23 24  2  0
 24 25  1  0
M  CHG  1  16   1
M  END
>  <s_m_entry_id>  (55) 
133

>  <s_m_entry_name>  (55) 
SIM_Broad_MProResults_ligprep.133

>  <Mol2_MolInfo_Name>  (55) 
11674

>  <Mol2_MolInfo_Type>  (55) 
SMALL

>  <Mol2_MolInfo_Charge>  (55) 
USER_CHARGES

>  <Mol2_Substructures>  (55) 
     1 UNK         1 GROUP             0       ****    0 ROOT    

>  <Name>  (55) 
11674

>  <s_m_Source_Path>  (55) 
/home/jgilaber/drug_learning/drug_learning/datasets/SARS2

>  <s_m_Source_File>  (55) 
SIM_Broad_MProResults_ligprep.sd

>  <i_m_Source_File_Index>  (55) 
133

>  <s_m_subgroup_title>  (55) 
SIM_Broad_MProResults_ligprep

>  <s_m_subgroupid>  (55) 
SIM_Broad_MProResults_ligprep

>  <b_m_subgroup_collapsed>  (55) 
0

$$$$
11759
     RDKit          2D

 24 24  0  0  1  0  0  0  0  0999 V2000
  -13.0596    1.0130    0.0000 O   0  0  0  0  0  0  0  0  0  0  0  0
  -11.8184    0.1707    0.0000 C   0  0  0  0  0  0  0  0  0  0  0  0
  -11.9272   -1.3254    0.0000 O   0  0  0  0  0  0  0  0  0  0  0  0
  -10.4683    0.8244    0.0000 C   0  0  0  0  0  0  0  0  0  0  0  0
   -9.2272   -0.0179    0.0000 C   0  0  0  0  0  0  0  0  0  0  0  0
   -7.8771    0.6359    0.0000 C   0  0  0  0  0  0  0  0  0  0  0  0
   -6.6359   -0.2064    0.0000 C   0  0  0  0  0  0  0  0  0  0  0  0
   -5.2859    0.4473    0.0000 C   0  0  0  0  0  0  0  0  0  0  0  0
   -4.0447   -0.3950    0.0000 C   0  0  0  0  0  0  0  0  0  0  0  0
   -2.6947    0.2588    0.0000 C   0  0  0  0  0  0  0  0  0  0  0  0
   -1.4535   -0.5836    0.0000 C   0  0  0  0  0  0  0  0  0  0  0  0
   -0.1034    0.0702    0.0000 C   0  0  0  0  0  0  0  0  0  0  0  0
    1.1377   -0.7721    0.0000 C   0  0  0  0  0  0  0  0  0  0  0  0
    2.4878   -0.1184    0.0000 C   0  0  0  0  0  0  0  0  0  0  0  0
    3.7290   -0.9607    0.0000 C   0  0  0  0  0  0  0  0  0  0  0  0
    5.0790   -0.3069    0.0000 C   0  0  0  0  0  0  0  0  0  0  0  0
    6.3202   -1.1492    0.0000 C   0  0  0  0  0  0  0  0  0  0  0  0
    7.6702   -0.4955    0.0000 C   0  0  0  0  0  0  0  0  0  0  0  0
    7.7791    1.0006    0.0000 C   0  0  0  0  0  0  0  0  0  0  0  0
    9.1292    1.6543    0.0000 C   0  0  0  0  0  0  0  0  0  0  0  0
   10.3703    0.8120    0.0000 C   0  0  0  0  0  0  0  0  0  0  0  0
   11.7204    1.4657    0.0000 I   0  0  0  0  0  0  0  0  0  0  0  0
   10.2615   -0.6840    0.0000 C   0  0  0  0  0  0  0  0  0  0  0  0
    8.9114   -1.3378    0.0000 C   0  0  0  0  0  0  0  0  0  0  0  0
  1  2  1  0
  2  3  2  0
  2  4  1  0
  4  5  1  0
  5  6  1  0
  6  7  1  0
  7  8  1  0
  8  9  1  0
  9 10  1  0
 10 11  1  0
 11 12  1  0
 12 13  1  0
 13 14  1  0
 14 15  1  0
 15 16  1  0
 16 17  1  0
 17 18  1  0
 18 19  2  0
 18 24  1  0
 19 20  1  0
 20 21  2  0
 21 22  1  0
 21 23  1  0
 23 24  2  0
M  CHG  1   1  -1
M  END
>  <s_m_entry_id>  (56) 
135

>  <s_m_entry_name>  (56) 
SIM_Broad_MProResults_ligprep.135

>  <Mol2_MolInfo_Name>  (56) 
11759

>  <Mol2_MolInfo_Type>  (56) 
SMALL

>  <Mol2_MolInfo_Charge>  (56) 
USER_CHARGES

>  <Mol2_Substructures>  (56) 
     1 UNK         1 GROUP             0       ****    0 ROOT    

>  <Name>  (56) 
11759

>  <s_m_Source_Path>  (56) 
/home/jgilaber/drug_learning/drug_learning/datasets/SARS2

>  <s_m_Source_File>  (56) 
SIM_Broad_MProResults_ligprep.sd

>  <i_m_Source_File_Index>  (56) 
135

>  <s_m_subgroup_title>  (56) 
SIM_Broad_MProResults_ligprep

>  <s_m_subgroupid>  (56) 
SIM_Broad_MProResults_ligprep

>  <b_m_subgroup_collapsed>  (56) 
0

$$$$
3961
     RDKit          2D

 23 24  0  0  1  0  0  0  0  0999 V2000
   -7.9247   -2.0968    0.0000 C   0  0  0  0  0  0  0  0  0  0  0  0
   -6.4286   -1.9896    0.0000 O   0  0  0  0  0  0  0  0  0  0  0  0
   -5.7733   -0.6403    0.0000 C   0  0  0  0  0  0  0  0  0  0  0  0
   -6.6143    0.6018    0.0000 C   0  0  0  0  0  0  0  0  0  0  0  0
   -5.9591    1.9511    0.0000 C   0  0  0  0  0  0  0  0  0  0  0  0
   -4.4629    2.0584    0.0000 C   0  0  0  0  0  0  0  0  0  0  0  0
   -3.6220    0.8163    0.0000 C   0  0  0  0  0  0  0  0  0  0  0  0
   -4.2772   -0.5331    0.0000 C   0  0  0  0  0  0  0  0  0  0  0  0
   -2.1258    0.9235    0.0000 C   0  0  0  0  0  0  0  0  0  0  0  0
   -1.4706    2.2728    0.0000 O   0  0  0  0  0  0  0  0  0  0  0  0
   -1.2849   -0.3186    0.0000 C   0  0  0  0  0  0  0  0  0  0  0  0
    0.2113   -0.2114    0.0000 C   0  0  0  0  0  0  0  0  0  0  0  0
    1.0522   -1.4535    0.0000 N   0  0  0  0  0  0  0  0  0  0  0  0
    2.5484   -1.3462    0.0000 C   0  0  0  0  0  0  0  0  0  0  0  0
    3.3894   -2.5883    0.0000 C   0  0  0  0  0  0  0  0  0  0  0  0
    3.2036    0.0031    0.0000 C   0  0  0  0  0  0  0  0  0  0  0  0
    2.3627    1.2452    0.0000 O   0  0  0  0  0  0  0  0  0  0  0  0
    4.6998    0.1103    0.0000 C   0  0  0  0  0  0  0  0  0  0  0  0
    5.5407   -1.1318    0.0000 C   0  0  0  0  0  0  0  0  0  0  0  0
    7.0369   -1.0245    0.0000 C   0  0  0  0  0  0  0  0  0  0  0  0
    7.6921    0.3248    0.0000 C   0  0  0  0  0  0  0  0  0  0  0  0
    6.8512    1.5669    0.0000 C   0  0  0  0  0  0  0  0  0  0  0  0
    5.3550    1.4597    0.0000 C   0  0  0  0  0  0  0  0  0  0  0  0
  1  2  1  0
  2  3  1  0
  3  4  2  0
  3  8  1  0
  4  5  1  0
  5  6  2  0
  6  7  1  0
  7  8  2  0
  7  9  1  0
  9 10  2  0
  9 11  1  0
 11 12  1  0
 12 13  1  0
 13 14  1  0
 14 15  1  0
 14 16  1  0
 16 17  1  0
 16 18  1  0
 18 19  2  0
 18 23  1  0
 19 20  1  0
 20 21  2  0
 21 22  1  0
 22 23  2  0
M  CHG  1  13   1
M  END
>  <s_m_entry_id>  (57) 
198

>  <s_m_entry_name>  (57) 
SIM_Broad_MProResults_ligprep.198

>  <Mol2_MolInfo_Name>  (57) 
3961

>  <Mol2_MolInfo_Type>  (57) 
SMALL

>  <Mol2_MolInfo_Charge>  (57) 
USER_CHARGES

>  <Mol2_Substructures>  (57) 
     1 ****        1 GROUP             0       ****    0 ROOT    

>  <Name>  (57) 
3961

>  <s_m_Source_Path>  (57) 
/home/jgilaber/drug_learning/drug_learning/datasets/SARS2

>  <s_m_Source_File>  (57) 
SIM_Broad_MProResults_ligprep.sd

>  <i_m_Source_File_Index>  (57) 
198

>  <s_m_subgroup_title>  (57) 
SIM_Broad_MProResults_ligprep

>  <s_m_subgroupid>  (57) 
SIM_Broad_MProResults_ligprep

>  <b_m_subgroup_collapsed>  (57) 
0

$$$$
9983
     RDKit          2D

 25 29  0  0  1  0  0  0  0  0999 V2000
   -2.8054    2.3726    0.0000 C   0  0  0  0  0  0  0  0  0  0  0  0
   -3.3627    0.9799    0.0000 C   0  0  0  0  0  0  0  0  0  0  0  0
   -4.6374    1.7705    0.0000 C   0  0  0  0  0  0  0  0  0  0  0  0
   -4.3626   -0.1382    0.0000 C   0  0  0  0  0  0  0  0  0  0  0  0
   -3.8944   -1.5632    0.0000 C   0  0  0  0  0  0  0  0  0  0  0  0
   -2.4261   -1.8701    0.0000 C   0  0  0  0  0  0  0  0  0  0  0  0
   -1.9578   -3.2952    0.0000 O   0  0  0  0  0  0  0  0  0  0  0  0
   -1.4261   -0.7521    0.0000 C   0  0  0  0  0  0  0  0  0  0  0  0
   -0.8406   -0.1731    0.0000 C   0  0  0  0  0  0  0  0  0  0  0  0
    0.0635    0.8378    0.0000 O   0  0  0  0  0  0  0  0  0  0  0  0
    0.5738    1.4841    0.0000 C   0  0  0  0  0  0  0  0  0  0  0  0
    1.5738    2.6021    0.0000 O   0  0  0  0  0  0  0  0  0  0  0  0
   -0.8945    1.7910    0.0000 C   0  0  0  0  0  0  0  0  0  0  0  0
   -1.8944    0.6730    0.0000 C   0  0  0  0  0  0  0  0  0  0  0  0
    1.0421    0.0590    0.0000 C   0  0  0  0  0  0  0  0  0  0  0  0
    2.5103   -0.2479    0.0000 C   0  0  0  0  0  0  0  0  0  0  0  0
    3.5103    0.8701    0.0000 O   0  0  0  0  0  0  0  0  0  0  0  0
    2.9786   -1.6729    0.0000 C   0  0  0  0  0  0  0  0  0  0  0  0
    1.9787   -2.7910    0.0000 C   0  0  0  0  0  0  0  0  0  0  0  0
    0.5104   -2.4841    0.0000 C   0  0  0  0  0  0  0  0  0  0  0  0
    0.0421   -1.0590    0.0000 C   0  0  0  0  0  0  0  0  0  0  0  0
    3.5842   -0.3006    0.0000 C   0  0  0  0  0  0  0  0  0  0  0  0
    5.0503    0.0162    0.0000 C   0  0  0  0  0  0  0  0  0  0  0  0
    2.4661    0.6994    0.0000 C   0  0  0  0  0  0  0  0  0  0  0  0
    2.6179    2.1917    0.0000 O   0  0  0  0  0  0  0  0  0  0  0  0
  1  2  1  0
  2  3  1  0
  2  4  1  0
  2 14  1  0
  4  5  1  0
  5  6  1  0
  6  7  1  0
  6  8  1  0
  8  9  1  0
  8 14  1  0
  8 21  1  0
  9 10  1  0
 10 11  1  0
 11 12  1  0
 11 13  1  0
 11 15  1  0
 13 14  1  0
 15 16  1  0
 15 21  1  0
 15 24  1  0
 16 17  1  0
 16 18  1  0
 18 19  1  0
 18 22  1  0
 19 20  1  0
 20 21  1  0
 22 23  2  0
 22 24  1  0
 24 25  2  0
M  END
>  <s_m_entry_id>  (58) 
41

>  <s_m_entry_name>  (58) 
SIM_Broad_MProResults_ligprep.41

>  <Mol2_MolInfo_Name>  (58) 
9983

>  <Mol2_MolInfo_Type>  (58) 
SMALL

>  <Mol2_MolInfo_Charge>  (58) 
USER_CHARGES

>  <Mol2_Substructures>  (58) 
     1 UNK         1 GROUP             0       ****    0 ROOT    

>  <Name>  (58) 
9983

>  <s_m_Source_Path>  (58) 
/home/jgilaber/drug_learning/drug_learning/datasets/SARS2

>  <s_m_Source_File>  (58) 
SIM_Broad_MProResults_ligprep.sd

>  <i_m_Source_File_Index>  (58) 
41

>  <s_m_subgroup_title>  (58) 
SIM_Broad_MProResults_ligprep

>  <s_m_subgroupid>  (58) 
SIM_Broad_MProResults_ligprep

>  <b_m_subgroup_collapsed>  (58) 
0

$$$$
10467
     RDKit          2D

 22 23  0  0  1  0  0  0  0  0999 V2000
    2.0499   -4.3052    0.0000 C   0  0  0  0  0  0  0  0  0  0  0  0
    1.8560   -2.8178    0.0000 C   0  0  0  0  0  0  0  0  0  0  0  0
    3.0472   -1.9062    0.0000 C   0  0  0  0  0  0  0  0  0  0  0  0
    2.8533   -0.4187    0.0000 C   0  0  0  0  0  0  0  0  0  0  0  0
    4.0445    0.4929    0.0000 C   0  0  0  0  0  0  0  0  0  0  0  0
    3.8506    1.9803    0.0000 C   0  0  0  0  0  0  0  0  0  0  0  0
    2.4655    2.5561    0.0000 C   0  0  0  0  0  0  0  0  0  0  0  0
    2.2716    4.0435    0.0000 O   0  0  0  0  0  0  0  0  0  0  0  0
    1.2743    1.6444    0.0000 C   0  0  0  0  0  0  0  0  0  0  0  0
   -0.1108    2.2202    0.0000 O   0  0  0  0  0  0  0  0  0  0  0  0
    1.4682    0.1570    0.0000 C   0  0  0  0  0  0  0  0  0  0  0  0
    0.4709   -2.2420    0.0000 C   0  0  0  0  0  0  0  0  0  0  0  0
   -0.7202   -3.1537    0.0000 C   0  0  0  0  0  0  0  0  0  0  0  0
    0.2770   -0.7546    0.0000 C   0  0  0  0  0  0  0  0  0  0  0  0
   -1.1081   -0.1788    0.0000 C   0  0  0  0  0  0  0  0  0  0  0  0
   -1.3020    1.3086    0.0000 C   0  0  0  0  0  0  0  0  0  0  0  0
   -2.6871    1.8843    0.0000 C   0  0  0  0  0  0  0  0  0  0  0  0
   -3.8783    0.9727    0.0000 C   0  0  0  0  0  0  0  0  0  0  0  0
   -5.2634    1.5485    0.0000 O   0  0  0  0  0  0  0  0  0  0  0  0
   -3.6844   -0.5147    0.0000 C   0  0  0  0  0  0  0  0  0  0  0  0
   -4.8755   -1.4263    0.0000 O   0  0  0  0  0  0  0  0  0  0  0  0
   -2.2993   -1.0905    0.0000 C   0  0  0  0  0  0  0  0  0  0  0  0
  1  2  1  0
  2  3  1  0
  2 12  1  0
  3  4  1  0
  4  5  2  0
  4 11  1  0
  5  6  1  0
  6  7  2  0
  7  8  1  0
  7  9  1  0
  9 10  1  0
  9 11  2  0
 12 13  1  0
 12 14  1  0
 14 15  1  0
 15 16  2  0
 15 22  1  0
 16 17  1  0
 17 18  2  0
 18 19  1  0
 18 20  1  0
 20 21  1  0
 20 22  2  0
M  END
>  <s_m_entry_id>  (59) 
69

>  <s_m_entry_name>  (59) 
SIM_Broad_MProResults_ligprep.69

>  <Mol2_MolInfo_Name>  (59) 
10467

>  <Mol2_MolInfo_Type>  (59) 
SMALL

>  <Mol2_MolInfo_Charge>  (59) 
USER_CHARGES

>  <Mol2_Substructures>  (59) 
     1 UNK         1 GROUP             0       ****    0 ROOT    

>  <Name>  (59) 
10467

>  <s_m_Source_Path>  (59) 
/home/jgilaber/drug_learning/drug_learning/datasets/SARS2

>  <s_m_Source_File>  (59) 
SIM_Broad_MProResults_ligprep.sd

>  <i_m_Source_File_Index>  (59) 
69

>  <s_m_subgroup_title>  (59) 
SIM_Broad_MProResults_ligprep

>  <s_m_subgroupid>  (59) 
SIM_Broad_MProResults_ligprep

>  <b_m_subgroup_collapsed>  (59) 
0

$$$$
10475
     RDKit          2D

 19 21  0  0  1  0  0  0  0  0999 V2000
    4.2074    2.3559    0.0000 O   0  0  0  0  0  0  0  0  0  0  0  0
    3.0103    1.4521    0.0000 C   0  0  0  0  0  0  0  0  0  0  0  0
    3.1944   -0.0365    0.0000 C   0  0  0  0  0  0  0  0  0  0  0  0
    1.9972   -0.9403    0.0000 C   0  0  0  0  0  0  0  0  0  0  0  0
    2.4012   -2.3849    0.0000 C   0  0  0  0  0  0  0  0  0  0  0  0
    1.5236   -3.6014    0.0000 C   0  0  0  0  0  0  0  0  0  0  0  0
    0.0254   -3.6738    0.0000 N   0  0  0  0  0  0  0  0  0  0  0  0
   -0.9654   -2.5475    0.0000 C   0  0  0  0  0  0  0  0  0  0  0  0
   -0.7025   -1.0707    0.0000 C   0  0  0  0  0  0  0  0  0  0  0  0
   -1.9190   -0.1931    0.0000 C   0  0  0  0  0  0  0  0  0  0  0  0
   -1.7673    1.2992    0.0000 C   0  0  0  0  0  0  0  0  0  0  0  0
   -2.9838    2.1767    0.0000 C   0  0  0  0  0  0  0  0  0  0  0  0
   -4.3520    1.5620    0.0000 C   0  0  0  0  0  0  0  0  0  0  0  0
   -4.5038    0.0697    0.0000 C   0  0  0  0  0  0  0  0  0  0  0  0
   -3.2873   -0.8079    0.0000 C   0  0  0  0  0  0  0  0  0  0  0  0
    0.6160   -0.3554    0.0000 C   0  0  0  0  0  0  0  0  0  0  0  0
    0.4318    1.1332    0.0000 C   0  0  0  0  0  0  0  0  0  0  0  0
    1.6290    2.0370    0.0000 C   0  0  0  0  0  0  0  0  0  0  0  0
    1.4449    3.5257    0.0000 O   0  0  0  0  0  0  0  0  0  0  0  0
  1  2  1  0
  2  3  2  0
  2 18  1  0
  3  4  1  0
  4  5  1  0
  4 16  2  0
  5  6  1  0
  6  7  1  0
  7  8  1  0
  8  9  1  0
  9 10  1  0
  9 16  1  0
 10 11  2  0
 10 15  1  0
 11 12  1  0
 12 13  2  0
 13 14  1  0
 14 15  2  0
 16 17  1  0
 17 18  2  0
 18 19  1  0
M  CHG  1   7   1
M  END
>  <s_m_entry_id>  (60) 
362

>  <s_m_entry_name>  (60) 
SIM_Broad_MProResults_ligprep.362

>  <Mol2_MolInfo_Name>  (60) 
10475

>  <Mol2_MolInfo_Type>  (60) 
SMALL

>  <Mol2_MolInfo_Charge>  (60) 
USER_CHARGES

>  <Mol2_Substructures>  (60) 
     1 ****        1 GROUP             0       ****    0 ROOT    

>  <Name>  (60) 
10475

>  <s_m_Source_Path>  (60) 
/home/jgilaber/drug_learning/drug_learning/datasets/SARS2

>  <s_m_Source_File>  (60) 
SIM_Broad_MProResults_ligprep.sd

>  <i_m_Source_File_Index>  (60) 
362

>  <s_m_subgroup_title>  (60) 
SIM_Broad_MProResults_ligprep

>  <s_m_subgroupid>  (60) 
SIM_Broad_MProResults_ligprep

>  <b_m_subgroup_collapsed>  (60) 
0

$$$$
5872
     RDKit          2D

 25 28  0  0  1  0  0  0  0  0999 V2000
   -7.4918    1.5109    0.0000 C   0  0  0  0  0  0  0  0  0  0  0  0
   -6.2515    0.6674    0.0000 N   0  0  0  0  0  0  0  0  0  0  0  0
   -6.3618   -0.8285    0.0000 C   0  0  0  0  0  0  0  0  0  0  0  0
   -4.9008    1.3199    0.0000 C   0  0  0  0  0  0  0  0  0  0  0  0
   -3.6604    0.4764    0.0000 C   0  0  0  0  0  0  0  0  0  0  0  0
   -2.3098    1.1288    0.0000 N   0  0  0  0  0  0  0  0  0  0  0  0
   -1.0694    0.2853    0.0000 C   0  0  0  0  0  0  0  0  0  0  0  0
   -1.1797   -1.2106    0.0000 N   0  0  0  0  0  0  0  0  0  0  0  0
    0.0607   -2.0541    0.0000 C   0  0  0  0  0  0  0  0  0  0  0  0
   -0.0496   -3.5501    0.0000 C   0  0  0  0  0  0  0  0  0  0  0  0
    1.1907   -4.3936    0.0000 C   0  0  0  0  0  0  0  0  0  0  0  0
    1.0804   -5.8895    0.0000 O   0  0  0  0  0  0  0  0  0  0  0  0
    2.5414   -3.7411    0.0000 C   0  0  0  0  0  0  0  0  0  0  0  0
    2.6517   -2.2452    0.0000 C   0  0  0  0  0  0  0  0  0  0  0  0
    1.4113   -1.4017    0.0000 C   0  0  0  0  0  0  0  0  0  0  0  0
    1.5217    0.0943    0.0000 C   0  0  0  0  0  0  0  0  0  0  0  0
    2.7072    1.0133    0.0000 C   0  0  0  0  0  0  0  0  0  0  0  0
    4.1834    0.7472    0.0000 C   0  0  0  0  0  0  0  0  0  0  0  0
    5.1519    1.8926    0.0000 C   0  0  0  0  0  0  0  0  0  0  0  0
    4.6442    3.3041    0.0000 C   0  0  0  0  0  0  0  0  0  0  0  0
    3.1680    3.5701    0.0000 C   0  0  0  0  0  0  0  0  0  0  0  0
    2.1995    2.4247    0.0000 C   0  0  0  0  0  0  0  0  0  0  0  0
    0.7002    2.3781    0.0000 C   0  0  0  0  0  0  0  0  0  0  0  0
   -0.2188    3.5636    0.0000 O   0  0  0  0  0  0  0  0  0  0  0  0
    0.2813    0.9378    0.0000 C   0  0  0  0  0  0  0  0  0  0  0  0
  1  2  1  0
  2  3  1  0
  2  4  1  0
  4  5  1  0
  5  6  1  0
  6  7  1  0
  7  8  2  0
  7 25  1  0
  8  9  1  0
  9 10  2  0
  9 15  1  0
 10 11  1  0
 11 12  1  0
 11 13  2  0
 13 14  1  0
 14 15  2  0
 15 16  1  0
 16 17  1  0
 16 25  2  0
 17 18  2  0
 17 22  1  0
 18 19  1  0
 19 20  2  0
 20 21  1  0
 21 22  2  0
 22 23  1  0
 23 24  2  0
 23 25  1  0
M  CHG  1   2   1
M  END
>  <s_m_entry_id>  (61) 
268

>  <s_m_entry_name>  (61) 
SIM_Broad_MProResults_ligprep.268

>  <Mol2_MolInfo_Name>  (61) 
5872

>  <Mol2_MolInfo_Type>  (61) 
SMALL

>  <Mol2_MolInfo_Charge>  (61) 
USER_CHARGES

>  <Mol2_Substructures>  (61) 
     1 UNK         1 GROUP             0       ****    0 ROOT    

>  <Name>  (61) 
5872

>  <s_m_Source_Path>  (61) 
/home/jgilaber/drug_learning/drug_learning/datasets/SARS2

>  <s_m_Source_File>  (61) 
SIM_Broad_MProResults_ligprep.sd

>  <i_m_Source_File_Index>  (61) 
268

>  <s_m_subgroup_title>  (61) 
SIM_Broad_MProResults_ligprep

>  <s_m_subgroupid>  (61) 
SIM_Broad_MProResults_ligprep

>  <b_m_subgroup_collapsed>  (61) 
0

$$$$
9926
     RDKit          2D

 38 40  0  0  1  0  0  0  0  0999 V2000
   -1.5792   -7.1082    0.0000 C   0  0  0  0  0  0  0  0  0  0  0  0
   -2.0335   -5.6786    0.0000 O   0  0  0  0  0  0  0  0  0  0  0  0
   -1.0226   -4.5704    0.0000 C   0  0  0  0  0  0  0  0  0  0  0  0
    0.4426   -4.8918    0.0000 O   0  0  0  0  0  0  0  0  0  0  0  0
   -1.4769   -3.1409    0.0000 C   0  0  0  0  0  0  0  0  0  0  0  0
   -2.9421   -2.8195    0.0000 C   0  0  0  0  0  0  0  0  0  0  0  0
   -3.3964   -1.3900    0.0000 O   0  0  0  0  0  0  0  0  0  0  0  0
   -2.3855   -0.2818    0.0000 C   0  0  0  0  0  0  0  0  0  0  0  0
   -2.8398    1.1478    0.0000 O   0  0  0  0  0  0  0  0  0  0  0  0
   -4.3049    1.4691    0.0000 C   0  0  0  0  0  0  0  0  0  0  0  0
   -4.7592    2.8987    0.0000 O   0  0  0  0  0  0  0  0  0  0  0  0
   -6.2244    3.2201    0.0000 C   0  0  0  0  0  0  0  0  0  0  0  0
   -6.6787    4.6496    0.0000 C   0  0  0  0  0  0  0  0  0  0  0  0
   -5.6678    5.7578    0.0000 O   0  0  0  0  0  0  0  0  0  0  0  0
   -7.2353    2.1118    0.0000 C   0  0  0  0  0  0  0  0  0  0  0  0
   -8.7005    2.4332    0.0000 O   0  0  0  0  0  0  0  0  0  0  0  0
   -6.7810    0.6823    0.0000 C   0  0  0  0  0  0  0  0  0  0  0  0
   -7.7919   -0.4259    0.0000 O   0  0  0  0  0  0  0  0  0  0  0  0
   -5.3158    0.3609    0.0000 C   0  0  0  0  0  0  0  0  0  0  0  0
   -4.8615   -1.0686    0.0000 O   0  0  0  0  0  0  0  0  0  0  0  0
   -0.9203   -0.6031    0.0000 C   0  0  0  0  0  0  0  0  0  0  0  0
    0.0906    0.5051    0.0000 C   0  0  0  0  0  0  0  0  0  0  0  0
   -0.3637    1.9347    0.0000 C   0  0  0  0  0  0  0  0  0  0  0  0
   -0.4660   -2.0327    0.0000 C   0  0  0  0  0  0  0  0  0  0  0  0
    0.9992   -2.3540    0.0000 C   0  0  0  0  0  0  0  0  0  0  0  0
    2.0100   -1.2458    0.0000 C   0  0  0  0  0  0  0  0  0  0  0  0
    1.5557    0.1838    0.0000 O   0  0  0  0  0  0  0  0  0  0  0  0
    3.4752   -1.5672    0.0000 O   0  0  0  0  0  0  0  0  0  0  0  0
    4.4861   -0.4589    0.0000 C   0  0  0  0  0  0  0  0  0  0  0  0
    5.9513   -0.7803    0.0000 C   0  0  0  0  0  0  0  0  0  0  0  0
    6.9622    0.3279    0.0000 C   0  0  0  0  0  0  0  0  0  0  0  0
    6.5079    1.7575    0.0000 C   0  0  0  0  0  0  0  0  0  0  0  0
    7.5187    2.8657    0.0000 C   0  0  0  0  0  0  0  0  0  0  0  0
    8.9839    2.5443    0.0000 C   0  0  0  0  0  0  0  0  0  0  0  0
    9.9948    3.6525    0.0000 O   0  0  0  0  0  0  0  0  0  0  0  0
    9.4382    1.1148    0.0000 C   0  0  0  0  0  0  0  0  0  0  0  0
   10.9034    0.7934    0.0000 O   0  0  0  0  0  0  0  0  0  0  0  0
    8.4273    0.0066    0.0000 C   0  0  0  0  0  0  0  0  0  0  0  0
  1  2  1  0
  2  3  1  0
  3  4  2  0
  3  5  1  0
  5  6  2  0
  5 24  1  0
  6  7  1  0
  7  8  1  0
  8  9  1  0
  8 21  1  0
  9 10  1  0
 10 11  1  0
 10 19  1  0
 11 12  1  0
 12 13  1  0
 12 15  1  0
 13 14  1  0
 15 16  1  0
 15 17  1  0
 17 18  1  0
 17 19  1  0
 19 20  1  0
 21 22  2  0
 21 24  1  0
 22 23  1  0
 24 25  1  0
 25 26  1  0
 26 27  2  0
 26 28  1  0
 28 29  1  0
 29 30  1  0
 30 31  1  0
 31 32  2  0
 31 38  1  0
 32 33  1  0
 33 34  2  0
 34 35  1  0
 34 36  1  0
 36 37  1  0
 36 38  2  0
M  END
>  <s_m_entry_id>  (62) 
1

>  <s_m_entry_name>  (62) 
SIM_Broad_MProResults_ligprep.1

>  <Mol2_MolInfo_Name>  (62) 
9926

>  <Mol2_MolInfo_Type>  (62) 
SMALL

>  <Mol2_MolInfo_Charge>  (62) 
USER_CHARGES

>  <Mol2_Substructures>  (62) 
     1 UNK         1 GROUP             0       ****    0 ROOT    

>  <Name>  (62) 
9926

>  <s_m_Source_Path>  (62) 
/home/jgilaber/drug_learning/drug_learning/datasets/SARS2

>  <s_m_Source_File>  (62) 
SIM_Broad_MProResults_ligprep.sd

>  <i_m_Source_File_Index>  (62) 
1

>  <s_m_subgroup_title>  (62) 
SIM_Broad_MProResults_ligprep

>  <s_m_subgroupid>  (62) 
SIM_Broad_MProResults_ligprep

>  <b_m_subgroup_collapsed>  (62) 
0

$$$$
5133
     RDKit          2D

 52 56  0  0  1  0  0  0  0  0999 V2000
   -5.7872    0.8042    0.0000 O   0  0  0  0  0  0  0  0  0  0  0  0
   -4.7042   -0.2336    0.0000 C   0  0  0  0  0  0  0  0  0  0  0  0
   -3.2639    0.1854    0.0000 O   0  0  0  0  0  0  0  0  0  0  0  0
   -5.0615   -1.6905    0.0000 C   0  0  0  0  0  0  0  0  0  0  0  0
   -6.5017   -2.1095    0.0000 C   0  0  0  0  0  0  0  0  0  0  0  0
   -7.5848   -1.0716    0.0000 C   0  0  0  0  0  0  0  0  0  0  0  0
   -7.2275    0.3852    0.0000 C   0  0  0  0  0  0  0  0  0  0  0  0
   -8.3105    1.4230    0.0000 C   0  0  0  0  0  0  0  0  0  0  0  0
   -9.7508    1.0040    0.0000 C   0  0  0  0  0  0  0  0  0  0  0  0
  -10.8338    2.0419    0.0000 O   0  0  0  0  0  0  0  0  0  0  0  0
  -10.1081   -0.4528    0.0000 C   0  0  0  0  0  0  0  0  0  0  0  0
  -11.5484   -0.8718    0.0000 O   0  0  0  0  0  0  0  0  0  0  0  0
   -9.0250   -1.4906    0.0000 C   0  0  0  0  0  0  0  0  0  0  0  0
   -3.9784   -2.7283    0.0000 O   0  0  0  0  0  0  0  0  0  0  0  0
   -2.5382   -2.3093    0.0000 C   0  0  0  0  0  0  0  0  0  0  0  0
   -2.1809   -0.8525    0.0000 O   0  0  0  0  0  0  0  0  0  0  0  0
   -1.4551   -3.3471    0.0000 C   0  0  0  0  0  0  0  0  0  0  0  0
   -0.0149   -2.9281    0.0000 C   0  0  0  0  0  0  0  0  0  0  0  0
    1.0682   -3.9659    0.0000 C   0  0  0  0  0  0  0  0  0  0  0  0
    0.7109   -5.4228    0.0000 C   0  0  0  0  0  0  0  0  0  0  0  0
    1.7939   -6.4606    0.0000 C   0  0  0  0  0  0  0  0  0  0  0  0
    3.2342   -6.0416    0.0000 C   0  0  0  0  0  0  0  0  0  0  0  0
    4.3172   -7.0794    0.0000 O   0  0  0  0  0  0  0  0  0  0  0  0
    3.5915   -4.5848    0.0000 C   0  0  0  0  0  0  0  0  0  0  0  0
    4.9132   -3.8755    0.0000 O   0  0  0  0  0  0  0  0  0  0  0  0
    4.6470   -2.3993    0.0000 C   0  0  0  0  0  0  0  0  0  0  0  0
    3.1608   -2.1962    0.0000 C   0  0  0  0  0  0  0  0  0  0  0  0
    2.4515   -0.8745    0.0000 C   0  0  0  0  0  0  0  0  0  0  0  0
    0.9522   -0.8279    0.0000 O   0  0  0  0  0  0  0  0  0  0  0  0
    3.2415    0.4006    0.0000 O   0  0  0  0  0  0  0  0  0  0  0  0
    2.5322    1.7223    0.0000 C   0  0  0  0  0  0  0  0  0  0  0  0
    3.3222    2.9974    0.0000 C   0  0  0  0  0  0  0  0  0  0  0  0
    2.6129    4.3191    0.0000 C   0  0  0  0  0  0  0  0  0  0  0  0
    3.4029    5.5942    0.0000 C   0  0  0  0  0  0  0  0  0  0  0  0
    2.6936    6.9159    0.0000 C   0  0  0  0  0  0  0  0  0  0  0  0
    1.1943    6.9625    0.0000 C   0  0  0  0  0  0  0  0  0  0  0  0
    0.4850    8.2842    0.0000 O   0  0  0  0  0  0  0  0  0  0  0  0
    0.4043    5.6874    0.0000 C   0  0  0  0  0  0  0  0  0  0  0  0
   -1.0950    5.7340    0.0000 O   0  0  0  0  0  0  0  0  0  0  0  0
    1.1136    4.3657    0.0000 C   0  0  0  0  0  0  0  0  0  0  0  0
    1.0329    1.7689    0.0000 C   0  0  0  0  0  0  0  0  0  0  0  0
    0.2429    0.4938    0.0000 O   0  0  0  0  0  0  0  0  0  0  0  0
    0.3236    3.0906    0.0000 O   0  0  0  0  0  0  0  0  0  0  0  0
    2.5085   -3.5469    0.0000 C   0  0  0  0  0  0  0  0  0  0  0  0
    5.6848   -1.3163    0.0000 C   0  0  0  0  0  0  0  0  0  0  0  0
    7.1417   -1.6735    0.0000 C   0  0  0  0  0  0  0  0  0  0  0  0
    8.1795   -0.5905    0.0000 C   0  0  0  0  0  0  0  0  0  0  0  0
    7.7605    0.8498    0.0000 C   0  0  0  0  0  0  0  0  0  0  0  0
    8.7983    1.9328    0.0000 O   0  0  0  0  0  0  0  0  0  0  0  0
    6.3037    1.2070    0.0000 C   0  0  0  0  0  0  0  0  0  0  0  0
    5.8847    2.6473    0.0000 O   0  0  0  0  0  0  0  0  0  0  0  0
    5.2658    0.1240    0.0000 C   0  0  0  0  0  0  0  0  0  0  0  0
  1  2  1  0
  2  3  2  0
  2  4  1  0
  4  5  1  0
  4 14  1  0
  5  6  1  0
  6  7  2  0
  6 13  1  0
  7  8  1  0
  8  9  2  0
  9 10  1  0
  9 11  1  0
 11 12  1  0
 11 13  2  0
 14 15  1  0
 15 16  2  0
 15 17  1  0
 17 18  2  0
 18 19  1  0
 19 20  2  0
 19 44  1  0
 20 21  1  0
 21 22  2  0
 22 23  1  0
 22 24  1  0
 24 25  1  0
 24 44  2  0
 25 26  1  0
 26 27  1  0
 26 45  1  0
 27 28  1  0
 27 44  1  0
 28 29  2  0
 28 30  1  0
 30 31  1  0
 31 32  1  0
 31 41  1  0
 32 33  1  0
 33 34  2  0
 33 40  1  0
 34 35  1  0
 35 36  2  0
 36 37  1  0
 36 38  1  0
 38 39  1  0
 38 40  2  0
 41 42  2  0
 41 43  1  0
 45 46  2  0
 45 52  1  0
 46 47  1  0
 47 48  2  0
 48 49  1  0
 48 50  1  0
 50 51  1  0
 50 52  2  0
M  CHG  2   1  -1  43  -1
M  END
>  <s_m_entry_id>  (63) 
252

>  <s_m_entry_name>  (63) 
SIM_Broad_MProResults_ligprep.252

>  <Mol2_MolInfo_Name>  (63) 
5133

>  <Mol2_MolInfo_Type>  (63) 
SMALL

>  <Mol2_MolInfo_Charge>  (63) 
USER_CHARGES

>  <Mol2_Substructures>  (63) 
     1 UNK         1 GROUP             0       ****    0 ROOT    

>  <Name>  (63) 
5133

>  <s_m_Source_Path>  (63) 
/home/jgilaber/drug_learning/drug_learning/datasets/SARS2

>  <s_m_Source_File>  (63) 
SIM_Broad_MProResults_ligprep.sd

>  <i_m_Source_File_Index>  (63) 
252

>  <s_m_subgroup_title>  (63) 
SIM_Broad_MProResults_ligprep

>  <s_m_subgroupid>  (63) 
SIM_Broad_MProResults_ligprep

>  <b_m_subgroup_collapsed>  (63) 
0

$$$$
8319
     RDKit          2D

 16 16  0  0  1  0  0  0  0  0999 V2000
   -3.2475    1.1995    0.0000 C   0  0  0  0  0  0  0  0  0  0  0  0
   -2.1451    0.1823    0.0000 C   0  0  0  0  0  0  0  0  0  0  0  0
   -1.0427   -0.8350    0.0000 C   0  0  0  0  0  0  0  0  0  0  0  0
    0.3894   -0.3889    0.0000 C   0  0  0  0  0  0  0  0  0  0  0  0
    0.7192    1.0744    0.0000 C   0  0  0  0  0  0  0  0  0  0  0  0
    2.1513    1.5204    0.0000 C   0  0  0  0  0  0  0  0  0  0  0  0
    3.2537    0.5032    0.0000 C   0  0  0  0  0  0  0  0  0  0  0  0
    4.6858    0.9492    0.0000 O   0  0  0  0  0  0  0  0  0  0  0  0
    2.9239   -0.9601    0.0000 C   0  0  0  0  0  0  0  0  0  0  0  0
    4.0263   -1.9774    0.0000 O   0  0  0  0  0  0  0  0  0  0  0  0
    1.4918   -1.4062    0.0000 C   0  0  0  0  0  0  0  0  0  0  0  0
   -1.1279    1.2846    0.0000 N   0  0  0  0  0  0  0  0  0  0  0  0
   -1.5739    2.7168    0.0000 N   0  0  0  0  0  0  0  0  0  0  0  0
   -3.1624   -0.9201    0.0000 C   0  0  0  0  0  0  0  0  0  0  0  0
   -2.7163   -2.3523    0.0000 O   0  0  0  0  0  0  0  0  0  0  0  0
   -4.6257   -0.5903    0.0000 O   0  0  0  0  0  0  0  0  0  0  0  0
  1  2  1  0
  2  3  1  0
  2 12  1  0
  2 14  1  0
  3  4  1  0
  4  5  2  0
  4 11  1  0
  5  6  1  0
  6  7  2  0
  7  8  1  0
  7  9  1  0
  9 10  1  0
  9 11  2  0
 12 13  1  0
 14 15  2  0
 14 16  1  0
M  CHG  2  12   1  16  -1
M  END
>  <s_m_entry_id>  (64) 
228

>  <s_m_entry_name>  (64) 
SIM_Broad_MProResults_ligprep.228

>  <Mol2_MolInfo_Name>  (64) 
8319

>  <Mol2_MolInfo_Type>  (64) 
SMALL

>  <Mol2_MolInfo_Charge>  (64) 
USER_CHARGES

>  <Mol2_Substructures>  (64) 
     1 ****        1 GROUP             0       ****    0 ROOT    

>  <Name>  (64) 
8319

>  <s_m_Source_Path>  (64) 
/home/jgilaber/drug_learning/drug_learning/datasets/SARS2

>  <s_m_Source_File>  (64) 
SIM_Broad_MProResults_ligprep.sd

>  <i_m_Source_File_Index>  (64) 
228

>  <s_m_subgroup_title>  (64) 
SIM_Broad_MProResults_ligprep

>  <s_m_subgroupid>  (64) 
SIM_Broad_MProResults_ligprep

>  <b_m_subgroup_collapsed>  (64) 
0

$$$$
11220
     RDKit          2D

 33 36  0  0  1  0  0  0  0  0999 V2000
    5.2488    0.1875    0.0000 C   0  0  0  0  0  0  0  0  0  0  0  0
    4.1160    1.1708    0.0000 C   0  0  0  0  0  0  0  0  0  0  0  0
    2.6981    0.6814    0.0000 O   0  0  0  0  0  0  0  0  0  0  0  0
    1.5653    1.6646    0.0000 C   0  0  0  0  0  0  0  0  0  0  0  0
    0.1474    1.1752    0.0000 O   0  0  0  0  0  0  0  0  0  0  0  0
   -0.1378   -0.2974    0.0000 C   0  0  0  0  0  0  0  0  0  0  0  0
   -1.5557   -0.7868    0.0000 C   0  0  0  0  0  0  0  0  0  0  0  0
   -1.8408   -2.2595    0.0000 O   0  0  0  0  0  0  0  0  0  0  0  0
   -0.7081   -3.2427    0.0000 C   0  0  0  0  0  0  0  0  0  0  0  0
   -0.9932   -4.7154    0.0000 C   0  0  0  0  0  0  0  0  0  0  0  0
    0.1396   -5.6986    0.0000 C   0  0  0  0  0  0  0  0  0  0  0  0
   -0.1455   -7.1713    0.0000 O   0  0  0  0  0  0  0  0  0  0  0  0
    1.5575   -5.2092    0.0000 C   0  0  0  0  0  0  0  0  0  0  0  0
    1.8427   -3.7366    0.0000 C   0  0  0  0  0  0  0  0  0  0  0  0
    3.2606   -3.2472    0.0000 O   0  0  0  0  0  0  0  0  0  0  0  0
    0.7099   -2.7533    0.0000 C   0  0  0  0  0  0  0  0  0  0  0  0
    0.9950   -1.2807    0.0000 C   0  0  0  0  0  0  0  0  0  0  0  0
    2.4129   -0.7913    0.0000 O   0  0  0  0  0  0  0  0  0  0  0  0
   -2.6885    0.1965    0.0000 C   0  0  0  0  0  0  0  0  0  0  0  0
   -2.4033    1.6691    0.0000 C   0  0  0  0  0  0  0  0  0  0  0  0
   -3.5361    2.6524    0.0000 C   0  0  0  0  0  0  0  0  0  0  0  0
   -3.2510    4.1250    0.0000 O   0  0  0  0  0  0  0  0  0  0  0  0
   -4.9540    2.1630    0.0000 C   0  0  0  0  0  0  0  0  0  0  0  0
   -6.0868    3.1462    0.0000 O   0  0  0  0  0  0  0  0  0  0  0  0
   -5.2392    0.6903    0.0000 C   0  0  0  0  0  0  0  0  0  0  0  0
   -6.6571    0.2009    0.0000 O   0  0  0  0  0  0  0  0  0  0  0  0
   -4.1064   -0.2929    0.0000 C   0  0  0  0  0  0  0  0  0  0  0  0
    1.8504    3.1373    0.0000 C   0  0  0  0  0  0  0  0  0  0  0  0
    0.7176    4.1205    0.0000 O   0  0  0  0  0  0  0  0  0  0  0  0
    3.2683    3.6267    0.0000 C   0  0  0  0  0  0  0  0  0  0  0  0
    3.5535    5.0993    0.0000 O   0  0  0  0  0  0  0  0  0  0  0  0
    4.4011    2.6434    0.0000 C   0  0  0  0  0  0  0  0  0  0  0  0
    5.8190    3.1328    0.0000 O   0  0  0  0  0  0  0  0  0  0  0  0
  1  2  1  0
  2  3  1  0
  2 32  1  0
  3  4  1  0
  4  5  1  0
  4 28  1  0
  5  6  1  0
  6  7  2  0
  6 17  1  0
  7  8  1  0
  7 19  1  0
  8  9  1  0
  9 10  2  0
  9 16  1  0
 10 11  1  0
 11 12  1  0
 11 13  2  0
 13 14  1  0
 14 15  1  0
 14 16  2  0
 16 17  1  0
 17 18  2  0
 19 20  2  0
 19 27  1  0
 20 21  1  0
 21 22  1  0
 21 23  2  0
 23 24  1  0
 23 25  1  0
 25 26  1  0
 25 27  2  0
 28 29  1  0
 28 30  1  0
 30 31  1  0
 30 32  1  0
 32 33  1  0
M  END
>  <s_m_entry_id>  (65) 
110

>  <s_m_entry_name>  (65) 
SIM_Broad_MProResults_ligprep.110

>  <Mol2_MolInfo_Name>  (65) 
11220

>  <Mol2_MolInfo_Type>  (65) 
SMALL

>  <Mol2_MolInfo_Charge>  (65) 
USER_CHARGES

>  <Mol2_Substructures>  (65) 
     1 UNK         1 GROUP             0       ****    0 ROOT    

>  <Name>  (65) 
11220

>  <s_m_Source_Path>  (65) 
/home/jgilaber/drug_learning/drug_learning/datasets/SARS2

>  <s_m_Source_File>  (65) 
SIM_Broad_MProResults_ligprep.sd

>  <i_m_Source_File_Index>  (65) 
110

>  <s_m_subgroup_title>  (65) 
SIM_Broad_MProResults_ligprep

>  <s_m_subgroupid>  (65) 
SIM_Broad_MProResults_ligprep

>  <b_m_subgroup_collapsed>  (65) 
0

$$$$
8605
     RDKit          2D

 26 27  0  0  1  0  0  0  0  0999 V2000
    0.9625   -4.0239    0.0000 O   0  0  0  0  0  0  0  0  0  0  0  0
    2.3584   -3.4749    0.0000 C   0  0  0  0  0  0  0  0  0  0  0  0
    3.5318   -4.4094    0.0000 O   0  0  0  0  0  0  0  0  0  0  0  0
    2.5810   -1.9915    0.0000 C   0  0  0  0  0  0  0  0  0  0  0  0
    3.9769   -1.4426    0.0000 C   0  0  0  0  0  0  0  0  0  0  0  0
    4.1995    0.0408    0.0000 C   0  0  0  0  0  0  0  0  0  0  0  0
    5.5954    0.5898    0.0000 C   0  0  0  0  0  0  0  0  0  0  0  0
    5.8180    2.0732    0.0000 C   0  0  0  0  0  0  0  0  0  0  0  0
    4.6446    3.0076    0.0000 C   0  0  0  0  0  0  0  0  0  0  0  0
    4.8671    4.4910    0.0000 O   0  0  0  0  0  0  0  0  0  0  0  0
    3.2486    2.4587    0.0000 C   0  0  0  0  0  0  0  0  0  0  0  0
    2.0753    3.3931    0.0000 O   0  0  0  0  0  0  0  0  0  0  0  0
    3.0261    0.9753    0.0000 C   0  0  0  0  0  0  0  0  0  0  0  0
    1.4076   -1.0571    0.0000 O   0  0  0  0  0  0  0  0  0  0  0  0
    0.0117   -1.6060    0.0000 C   0  0  0  0  0  0  0  0  0  0  0  0
   -0.2109   -3.0894    0.0000 O   0  0  0  0  0  0  0  0  0  0  0  0
   -1.1617   -0.6716    0.0000 C   0  0  0  0  0  0  0  0  0  0  0  0
   -2.5577   -1.2206    0.0000 C   0  0  0  0  0  0  0  0  0  0  0  0
   -3.7310   -0.2861    0.0000 C   0  0  0  0  0  0  0  0  0  0  0  0
   -3.5085    1.1973    0.0000 C   0  0  0  0  0  0  0  0  0  0  0  0
   -4.6819    2.1317    0.0000 C   0  0  0  0  0  0  0  0  0  0  0  0
   -6.0778    1.5828    0.0000 C   0  0  0  0  0  0  0  0  0  0  0  0
   -7.2512    2.5172    0.0000 O   0  0  0  0  0  0  0  0  0  0  0  0
   -6.3004    0.0994    0.0000 C   0  0  0  0  0  0  0  0  0  0  0  0
   -7.6963   -0.4496    0.0000 O   0  0  0  0  0  0  0  0  0  0  0  0
   -5.1270   -0.8351    0.0000 C   0  0  0  0  0  0  0  0  0  0  0  0
  1  2  1  0
  2  3  2  0
  2  4  1  0
  4  5  1  0
  4 14  1  0
  5  6  1  0
  6  7  2  0
  6 13  1  0
  7  8  1  0
  8  9  2  0
  9 10  1  0
  9 11  1  0
 11 12  1  0
 11 13  2  0
 14 15  1  0
 15 16  2  0
 15 17  1  0
 17 18  2  0
 18 19  1  0
 19 20  2  0
 19 26  1  0
 20 21  1  0
 21 22  2  0
 22 23  1  0
 22 24  1  0
 24 25  1  0
 24 26  2  0
M  CHG  1   1  -1
M  END
>  <s_m_entry_id>  (66) 
232

>  <s_m_entry_name>  (66) 
SIM_Broad_MProResults_ligprep.232

>  <Mol2_MolInfo_Name>  (66) 
8605

>  <Mol2_MolInfo_Type>  (66) 
SMALL

>  <Mol2_MolInfo_Charge>  (66) 
USER_CHARGES

>  <Mol2_Substructures>  (66) 
     1 ****        1 GROUP             0       ****    0 ROOT    

>  <Name>  (66) 
8605

>  <s_m_Source_Path>  (66) 
/home/jgilaber/drug_learning/drug_learning/datasets/SARS2

>  <s_m_Source_File>  (66) 
SIM_Broad_MProResults_ligprep.sd

>  <i_m_Source_File_Index>  (66) 
232

>  <s_m_subgroup_title>  (66) 
SIM_Broad_MProResults_ligprep

>  <s_m_subgroupid>  (66) 
SIM_Broad_MProResults_ligprep

>  <b_m_subgroup_collapsed>  (66) 
0

$$$$
6323
     RDKit          2D

 32 35  0  0  1  0  0  0  0  0999 V2000
   -7.3068   -3.3972    0.0000 C   0  0  0  0  0  0  0  0  0  0  0  0
   -7.3449   -1.8977    0.0000 C   0  0  0  0  0  0  0  0  0  0  0  0
   -8.6626   -1.1809    0.0000 C   0  0  0  0  0  0  0  0  0  0  0  0
   -6.0654   -1.1149    0.0000 N   0  0  0  0  0  0  0  0  0  0  0  0
   -6.1036    0.3847    0.0000 C   0  0  0  0  0  0  0  0  0  0  0  0
   -7.4212    1.1014    0.0000 C   0  0  0  0  0  0  0  0  0  0  0  0
   -7.4594    2.6009    0.0000 C   0  0  0  0  0  0  0  0  0  0  0  0
   -6.1799    3.3837    0.0000 C   0  0  0  0  0  0  0  0  0  0  0  0
   -4.8622    2.6670    0.0000 N   0  0  0  0  0  0  0  0  0  0  0  0
   -4.8240    1.1675    0.0000 C   0  0  0  0  0  0  0  0  0  0  0  0
   -3.5063    0.4507    0.0000 N   0  0  0  0  0  0  0  0  0  0  0  0
   -3.4682   -1.0488    0.0000 C   0  0  0  0  0  0  0  0  0  0  0  0
   -2.1505   -1.7655    0.0000 C   0  0  0  0  0  0  0  0  0  0  0  0
   -0.8709   -0.9827    0.0000 N   0  0  0  0  0  0  0  0  0  0  0  0
   -0.9091    0.5168    0.0000 C   0  0  0  0  0  0  0  0  0  0  0  0
   -2.2268    1.2335    0.0000 C   0  0  0  0  0  0  0  0  0  0  0  0
    0.4468   -1.6994    0.0000 C   0  0  0  0  0  0  0  0  0  0  0  0
    0.4849   -3.1989    0.0000 O   0  0  0  0  0  0  0  0  0  0  0  0
    1.7263   -0.9166    0.0000 C   0  0  0  0  0  0  0  0  0  0  0  0
    3.1117   -1.4916    0.0000 C   0  0  0  0  0  0  0  0  0  0  0  0
    4.0867   -0.3518    0.0000 C   0  0  0  0  0  0  0  0  0  0  0  0
    5.5862   -0.3136    0.0000 C   0  0  0  0  0  0  0  0  0  0  0  0
    6.3029    1.0041    0.0000 C   0  0  0  0  0  0  0  0  0  0  0  0
    7.8025    1.0423    0.0000 N   0  0  0  0  0  0  0  0  0  0  0  0
    8.5853   -0.2373    0.0000 S   0  0  0  0  0  0  0  0  0  0  0  0
    7.3057   -1.0201    0.0000 O   0  0  0  0  0  0  0  0  0  0  0  0
    9.8648    0.5455    0.0000 O   0  0  0  0  0  0  0  0  0  0  0  0
    9.3681   -1.5168    0.0000 C   0  0  0  0  0  0  0  0  0  0  0  0
    5.5201    2.2836    0.0000 C   0  0  0  0  0  0  0  0  0  0  0  0
    4.0206    2.2455    0.0000 C   0  0  0  0  0  0  0  0  0  0  0  0
    3.3039    0.9278    0.0000 C   0  0  0  0  0  0  0  0  0  0  0  0
    1.8451    0.5787    0.0000 N   0  0  0  0  0  0  0  0  0  0  0  0
  1  2  1  0
  2  3  1  0
  2  4  1  0
  4  5  1  0
  5  6  2  0
  5 10  1  0
  6  7  1  0
  7  8  2  0
  8  9  1  0
  9 10  2  0
 10 11  1  0
 11 12  1  0
 11 16  1  0
 12 13  1  0
 13 14  1  0
 14 15  1  0
 14 17  1  0
 15 16  1  0
 17 18  2  0
 17 19  1  0
 19 20  2  0
 19 32  1  0
 20 21  1  0
 21 22  2  0
 21 31  1  0
 22 23  1  0
 23 24  1  0
 23 29  2  0
 24 25  1  0
 25 26  2  0
 25 27  2  0
 25 28  1  0
 29 30  1  0
 30 31  2  0
 31 32  1  0
M  END
>  <s_m_entry_id>  (67) 
208

>  <s_m_entry_name>  (67) 
SIM_Broad_MProResults_ligprep.208

>  <Mol2_MolInfo_Name>  (67) 
6323

>  <Mol2_MolInfo_Type>  (67) 
SMALL

>  <Mol2_MolInfo_Charge>  (67) 
USER_CHARGES

>  <Mol2_Substructures>  (67) 
     1 ****        1 GROUP             0       ****    0 ROOT    

>  <Name>  (67) 
6323

>  <s_m_Source_Path>  (67) 
/home/jgilaber/drug_learning/drug_learning/datasets/SARS2

>  <s_m_Source_File>  (67) 
SIM_Broad_MProResults_ligprep.sd

>  <i_m_Source_File_Index>  (67) 
208

>  <s_m_subgroup_title>  (67) 
SIM_Broad_MProResults_ligprep

>  <s_m_subgroupid>  (67) 
SIM_Broad_MProResults_ligprep

>  <b_m_subgroup_collapsed>  (67) 
0

$$$$
4082
     RDKit          2D

 37 41  0  0  1  0  0  0  0  0999 V2000
    0.8496   -4.1074    0.0000 C   0  0  0  0  0  0  0  0  0  0  0  0
    0.6651   -2.6188    0.0000 O   0  0  0  0  0  0  0  0  0  0  0  0
    1.8621   -1.7148    0.0000 C   0  0  0  0  0  0  0  0  0  0  0  0
    3.2435   -2.2994    0.0000 N   0  0  0  0  0  0  0  0  0  0  0  0
    4.4405   -1.3953    0.0000 C   0  0  0  0  0  0  0  0  0  0  0  0
    5.8219   -1.9799    0.0000 C   0  0  0  0  0  0  0  0  0  0  0  0
    7.0188   -1.0759    0.0000 C   0  0  0  0  0  0  0  0  0  0  0  0
    6.8344    0.4127    0.0000 C   0  0  0  0  0  0  0  0  0  0  0  0
    8.0314    1.3167    0.0000 Br  0  0  0  0  0  0  0  0  0  0  0  0
    5.4530    0.9973    0.0000 C   0  0  0  0  0  0  0  0  0  0  0  0
    4.2560    0.0933    0.0000 C   0  0  0  0  0  0  0  0  0  0  0  0
    2.8746    0.6779    0.0000 C   0  0  0  0  0  0  0  0  0  0  0  0
    1.6777   -0.2262    0.0000 C   0  0  0  0  0  0  0  0  0  0  0  0
    0.2963    0.3584    0.0000 C   0  0  0  0  0  0  0  0  0  0  0  0
    0.1119    1.8470    0.0000 C   0  0  0  0  0  0  0  0  0  0  0  0
   -1.2695    2.4316    0.0000 C   0  0  0  0  0  0  0  0  0  0  0  0
   -1.4540    3.9203    0.0000 C   0  0  0  0  0  0  0  0  0  0  0  0
   -0.2570    4.8243    0.0000 C   0  0  0  0  0  0  0  0  0  0  0  0
    1.1244    4.2397    0.0000 C   0  0  0  0  0  0  0  0  0  0  0  0
    1.3088    2.7511    0.0000 C   0  0  0  0  0  0  0  0  0  0  0  0
   -0.9007   -0.5456    0.0000 C   0  0  0  0  0  0  0  0  0  0  0  0
    0.0033   -1.7426    0.0000 O   0  0  0  0  0  0  0  0  0  0  0  0
   -2.0977   -1.4496    0.0000 C   0  0  0  0  0  0  0  0  0  0  0  0
   -1.9132   -2.9382    0.0000 C   0  0  0  0  0  0  0  0  0  0  0  0
   -3.1102   -3.8423    0.0000 N   0  0  0  0  0  0  0  0  0  0  0  0
   -2.9258   -5.3309    0.0000 C   0  0  0  0  0  0  0  0  0  0  0  0
   -4.4916   -3.2577    0.0000 C   0  0  0  0  0  0  0  0  0  0  0  0
   -1.8047    0.6514    0.0000 C   0  0  0  0  0  0  0  0  0  0  0  0
   -1.2201    2.0328    0.0000 C   0  0  0  0  0  0  0  0  0  0  0  0
   -2.1242    3.2297    0.0000 C   0  0  0  0  0  0  0  0  0  0  0  0
   -3.6128    3.0453    0.0000 C   0  0  0  0  0  0  0  0  0  0  0  0
   -4.1974    1.6639    0.0000 C   0  0  0  0  0  0  0  0  0  0  0  0
   -5.6860    1.4795    0.0000 C   0  0  0  0  0  0  0  0  0  0  0  0
   -6.2706    0.0981    0.0000 C   0  0  0  0  0  0  0  0  0  0  0  0
   -5.3666   -1.0989    0.0000 C   0  0  0  0  0  0  0  0  0  0  0  0
   -3.8779   -0.9144    0.0000 C   0  0  0  0  0  0  0  0  0  0  0  0
   -3.2933    0.4669    0.0000 C   0  0  0  0  0  0  0  0  0  0  0  0
  1  2  1  0
  2  3  1  0
  3  4  2  0
  3 13  1  0
  4  5  1  0
  5  6  2  0
  5 11  1  0
  6  7  1  0
  7  8  2  0
  8  9  1  0
  8 10  1  0
 10 11  2  0
 11 12  1  0
 12 13  2  0
 13 14  1  0
 14 15  1  0
 14 21  1  0
 15 16  2  0
 15 20  1  0
 16 17  1  0
 17 18  2  0
 18 19  1  0
 19 20  2  0
 21 22  1  0
 21 23  1  0
 21 28  1  0
 23 24  1  0
 24 25  1  0
 25 26  1  0
 25 27  1  0
 28 29  2  0
 28 37  1  0
 29 30  1  0
 30 31  2  0
 31 32  1  0
 32 33  1  0
 32 37  2  0
 33 34  2  0
 34 35  1  0
 35 36  2  0
 36 37  1  0
M  CHG  1  25   1
M  END
>  <s_m_entry_id>  (68) 
201

>  <s_m_entry_name>  (68) 
SIM_Broad_MProResults_ligprep.201

>  <Mol2_MolInfo_Name>  (68) 
4082

>  <Mol2_MolInfo_Type>  (68) 
SMALL

>  <Mol2_MolInfo_Charge>  (68) 
USER_CHARGES

>  <Mol2_Substructures>  (68) 
     1 ****        1 GROUP             0       ****    0 ROOT    

>  <Name>  (68) 
4082

>  <s_m_Source_Path>  (68) 
/home/jgilaber/drug_learning/drug_learning/datasets/SARS2

>  <s_m_Source_File>  (68) 
SIM_Broad_MProResults_ligprep.sd

>  <i_m_Source_File_Index>  (68) 
201

>  <s_m_subgroup_title>  (68) 
SIM_Broad_MProResults_ligprep

>  <s_m_subgroupid>  (68) 
SIM_Broad_MProResults_ligprep

>  <b_m_subgroup_collapsed>  (68) 
0

$$$$
7272
     RDKit          2D

 20 21  0  0  1  0  0  0  0  0999 V2000
   -5.5273   -0.9174    0.0000 O   0  0  0  0  0  0  0  0  0  0  0  0
   -4.1823   -0.2535    0.0000 C   0  0  0  0  0  0  0  0  0  0  0  0
   -4.0847    1.2433    0.0000 C   0  0  0  0  0  0  0  0  0  0  0  0
   -2.7396    1.9073    0.0000 C   0  0  0  0  0  0  0  0  0  0  0  0
   -1.4921    1.0743    0.0000 C   0  0  0  0  0  0  0  0  0  0  0  0
   -0.1470    1.7382    0.0000 C   0  0  0  0  0  0  0  0  0  0  0  0
   -0.0495    3.2351    0.0000 O   0  0  0  0  0  0  0  0  0  0  0  0
    1.1005    0.9053    0.0000 C   0  0  0  0  0  0  0  0  0  0  0  0
    1.0029   -0.5915    0.0000 C   0  0  0  0  0  0  0  0  0  0  0  0
    2.2504   -1.4244    0.0000 C   0  0  0  0  0  0  0  0  0  0  0  0
    2.1528   -2.9212    0.0000 O   0  0  0  0  0  0  0  0  0  0  0  0
    3.5955   -0.7605    0.0000 C   0  0  0  0  0  0  0  0  0  0  0  0
    4.8429   -1.5934    0.0000 O   0  0  0  0  0  0  0  0  0  0  0  0
    3.6930    0.7363    0.0000 C   0  0  0  0  0  0  0  0  0  0  0  0
    5.0381    1.4002    0.0000 O   0  0  0  0  0  0  0  0  0  0  0  0
    2.4455    1.5692    0.0000 C   0  0  0  0  0  0  0  0  0  0  0  0
   -1.5897   -0.4225    0.0000 C   0  0  0  0  0  0  0  0  0  0  0  0
   -0.3422   -1.2554    0.0000 O   0  0  0  0  0  0  0  0  0  0  0  0
   -2.9348   -1.0864    0.0000 C   0  0  0  0  0  0  0  0  0  0  0  0
   -3.0323   -2.5832    0.0000 O   0  0  0  0  0  0  0  0  0  0  0  0
  1  2  1  0
  2  3  2  0
  2 19  1  0
  3  4  1  0
  4  5  2  0
  5  6  1  0
  5 17  1  0
  6  7  2  0
  6  8  1  0
  8  9  2  0
  8 16  1  0
  9 10  1  0
 10 11  1  0
 10 12  2  0
 12 13  1  0
 12 14  1  0
 14 15  1  0
 14 16  2  0
 17 18  1  0
 17 19  2  0
 19 20  1  0
M  END
>  <s_m_entry_id>  (69) 
218

>  <s_m_entry_name>  (69) 
SIM_Broad_MProResults_ligprep.218

>  <Mol2_MolInfo_Name>  (69) 
7272

>  <Mol2_MolInfo_Type>  (69) 
SMALL

>  <Mol2_MolInfo_Charge>  (69) 
USER_CHARGES

>  <Mol2_Substructures>  (69) 
     1 ****        1 GROUP             0       ****    0 ROOT    

>  <Name>  (69) 
7272

>  <s_m_Source_Path>  (69) 
/home/jgilaber/drug_learning/drug_learning/datasets/SARS2

>  <s_m_Source_File>  (69) 
SIM_Broad_MProResults_ligprep.sd

>  <i_m_Source_File_Index>  (69) 
218

>  <s_m_subgroup_title>  (69) 
SIM_Broad_MProResults_ligprep

>  <s_m_subgroupid>  (69) 
SIM_Broad_MProResults_ligprep

>  <b_m_subgroup_collapsed>  (69) 
0

$$$$
349
     RDKit          2D

 44 47  0  0  1  0  0  0  0  0999 V2000
    4.1950   -0.1018    0.0000 C   0  0  0  0  0  0  0  0  0  0  0  0
    3.7605    1.3339    0.0000 C   0  0  0  0  0  0  0  0  0  0  0  0
    2.2999    1.6755    0.0000 O   0  0  0  0  0  0  0  0  0  0  0  0
    1.8655    3.1112    0.0000 C   0  0  0  0  0  0  0  0  0  0  0  0
    0.4049    3.4528    0.0000 O   0  0  0  0  0  0  0  0  0  0  0  0
   -0.6212    2.3587    0.0000 C   0  0  0  0  0  0  0  0  0  0  0  0
   -2.0818    2.7003    0.0000 C   0  0  0  0  0  0  0  0  0  0  0  0
   -2.5163    4.1360    0.0000 O   0  0  0  0  0  0  0  0  0  0  0  0
   -3.1079    1.6062    0.0000 C   0  0  0  0  0  0  0  0  0  0  0  0
   -4.5685    1.9478    0.0000 O   0  0  0  0  0  0  0  0  0  0  0  0
   -5.5946    0.8536    0.0000 C   0  0  0  0  0  0  0  0  0  0  0  0
   -7.0552    1.1952    0.0000 C   0  0  0  0  0  0  0  0  0  0  0  0
   -8.0814    0.1011    0.0000 C   0  0  0  0  0  0  0  0  0  0  0  0
   -9.5419    0.4427    0.0000 C   0  0  0  0  0  0  0  0  0  0  0  0
  -10.5681   -0.6514    0.0000 C   0  0  0  0  0  0  0  0  0  0  0  0
  -10.1336   -2.0871    0.0000 C   0  0  0  0  0  0  0  0  0  0  0  0
  -11.1597   -3.1812    0.0000 O   0  0  0  0  0  0  0  0  0  0  0  0
   -8.6730   -2.4287    0.0000 C   0  0  0  0  0  0  0  0  0  0  0  0
   -8.2386   -3.8644    0.0000 O   0  0  0  0  0  0  0  0  0  0  0  0
   -7.6469   -1.3346    0.0000 C   0  0  0  0  0  0  0  0  0  0  0  0
   -2.6735    0.1705    0.0000 O   0  0  0  0  0  0  0  0  0  0  0  0
   -1.2129   -0.1711    0.0000 C   0  0  0  0  0  0  0  0  0  0  0  0
   -0.7784   -1.6068    0.0000 C   0  0  0  0  0  0  0  0  0  0  0  0
   -1.8045   -2.7009    0.0000 O   0  0  0  0  0  0  0  0  0  0  0  0
   -0.1868    0.9230    0.0000 C   0  0  0  0  0  0  0  0  0  0  0  0
    1.2738    0.5814    0.0000 O   0  0  0  0  0  0  0  0  0  0  0  0
    1.7083   -0.8543    0.0000 C   0  0  0  0  0  0  0  0  0  0  0  0
    0.6822   -1.9484    0.0000 O   0  0  0  0  0  0  0  0  0  0  0  0
    3.1689   -1.1959    0.0000 C   0  0  0  0  0  0  0  0  0  0  0  0
    3.6033   -2.6316    0.0000 C   0  0  0  0  0  0  0  0  0  0  0  0
    5.0639   -2.9732    0.0000 C   0  0  0  0  0  0  0  0  0  0  0  0
    5.4984   -4.4089    0.0000 C   0  0  0  0  0  0  0  0  0  0  0  0
    6.9590   -4.7505    0.0000 C   0  0  0  0  0  0  0  0  0  0  0  0
    7.9851   -3.6564    0.0000 C   0  0  0  0  0  0  0  0  0  0  0  0
    9.4457   -3.9980    0.0000 O   0  0  0  0  0  0  0  0  0  0  0  0
    7.5506   -2.2207    0.0000 C   0  0  0  0  0  0  0  0  0  0  0  0
    8.5768   -1.1266    0.0000 O   0  0  0  0  0  0  0  0  0  0  0  0
    6.0900   -1.8791    0.0000 C   0  0  0  0  0  0  0  0  0  0  0  0
    2.8916    4.2053    0.0000 C   0  0  0  0  0  0  0  0  0  0  0  0
    2.4571    5.6410    0.0000 O   0  0  0  0  0  0  0  0  0  0  0  0
    4.3522    3.8637    0.0000 C   0  0  0  0  0  0  0  0  0  0  0  0
    5.3783    4.9578    0.0000 O   0  0  0  0  0  0  0  0  0  0  0  0
    4.7867    2.4280    0.0000 C   0  0  0  0  0  0  0  0  0  0  0  0
    6.2472    2.0864    0.0000 O   0  0  0  0  0  0  0  0  0  0  0  0
  1  2  1  0
  2  3  1  0
  2 43  1  0
  3  4  1  0
  4  5  1  0
  4 39  1  0
  5  6  1  0
  6  7  1  0
  6 25  1  0
  7  8  1  0
  7  9  1  0
  9 10  1  0
  9 21  1  0
 10 11  1  0
 11 12  1  0
 12 13  1  0
 13 14  2  0
 13 20  1  0
 14 15  1  0
 15 16  2  0
 16 17  1  0
 16 18  1  0
 18 19  1  0
 18 20  2  0
 21 22  1  0
 22 23  1  0
 22 25  1  0
 23 24  1  0
 25 26  1  0
 26 27  1  0
 27 28  2  0
 27 29  1  0
 29 30  2  0
 30 31  1  0
 31 32  2  0
 31 38  1  0
 32 33  1  0
 33 34  2  0
 34 35  1  0
 34 36  1  0
 36 37  1  0
 36 38  2  0
 39 40  1  0
 39 41  1  0
 41 42  1  0
 41 43  1  0
 43 44  1  0
M  END
>  <s_m_entry_id>  (70) 
238

>  <s_m_entry_name>  (70) 
SIM_Broad_MProResults_ligprep.238

>  <Mol2_MolInfo_Name>  (70) 
349

>  <Mol2_MolInfo_Type>  (70) 
SMALL

>  <Mol2_MolInfo_Charge>  (70) 
USER_CHARGES

>  <Mol2_Substructures>  (70) 
     1 UNK         1 GROUP             0       ****    0 ROOT    

>  <Name>  (70) 
349

>  <s_m_Source_Path>  (70) 
/home/jgilaber/drug_learning/drug_learning/datasets/SARS2

>  <s_m_Source_File>  (70) 
SIM_Broad_MProResults_ligprep.sd

>  <i_m_Source_File_Index>  (70) 
238

>  <s_m_subgroup_title>  (70) 
SIM_Broad_MProResults_ligprep

>  <s_m_subgroupid>  (70) 
SIM_Broad_MProResults_ligprep

>  <b_m_subgroup_collapsed>  (70) 
0

$$$$
11683
     RDKit          2D

 21 22  0  0  1  0  0  0  0  0999 V2000
   -8.6228   -1.1575    0.0000 C   0  0  0  0  0  0  0  0  0  0  0  0
   -7.1629   -1.5022    0.0000 C   0  0  0  0  0  0  0  0  0  0  0  0
   -6.1345   -0.4103    0.0000 C   0  0  0  0  0  0  0  0  0  0  0  0
   -4.6466   -0.6005    0.0000 O   0  0  0  0  0  0  0  0  0  0  0  0
   -4.0058    0.7557    0.0000 C   0  0  0  0  0  0  0  0  0  0  0  0
   -2.5320    1.0346    0.0000 C   0  0  0  0  0  0  0  0  0  0  0  0
   -1.5536   -0.1024    0.0000 C   0  0  0  0  0  0  0  0  0  0  0  0
   -0.0797    0.1765    0.0000 C   0  0  0  0  0  0  0  0  0  0  0  0
    0.4157    1.5923    0.0000 O   0  0  0  0  0  0  0  0  0  0  0  0
    0.8987   -0.9605    0.0000 N   0  0  0  0  0  0  0  0  0  0  0  0
    2.3725   -0.6817    0.0000 C   0  0  0  0  0  0  0  0  0  0  0  0
    3.3510   -1.8186    0.0000 C   0  0  0  0  0  0  0  0  0  0  0  0
    4.8248   -1.5398    0.0000 C   0  0  0  0  0  0  0  0  0  0  0  0
    5.3202   -0.1240    0.0000 C   0  0  0  0  0  0  0  0  0  0  0  0
    4.3418    1.0130    0.0000 C   0  0  0  0  0  0  0  0  0  0  0  0
    2.8680    0.7341    0.0000 C   0  0  0  0  0  0  0  0  0  0  0  0
    6.7941    0.1549    0.0000 C   0  0  0  0  0  0  0  0  0  0  0  0
    7.2895    1.5707    0.0000 O   0  0  0  0  0  0  0  0  0  0  0  0
    7.7725   -0.9821    0.0000 C   0  0  0  0  0  0  0  0  0  0  0  0
   -5.0977    1.7842    0.0000 C   0  0  0  0  0  0  0  0  0  0  0  0
   -6.4133    1.0636    0.0000 C   0  0  0  0  0  0  0  0  0  0  0  0
  1  2  1  0
  2  3  1  0
  3  4  1  0
  3 21  2  0
  4  5  1  0
  5  6  1  0
  5 20  2  0
  6  7  2  0
  7  8  1  0
  8  9  2  0
  8 10  1  0
 10 11  1  0
 11 12  2  0
 11 16  1  0
 12 13  1  0
 13 14  2  0
 14 15  1  0
 14 17  1  0
 15 16  2  0
 17 18  2  0
 17 19  1  0
 20 21  1  0
M  END
>  <s_m_entry_id>  (71) 
134

>  <s_m_entry_name>  (71) 
SIM_Broad_MProResults_ligprep.134

>  <Mol2_MolInfo_Name>  (71) 
11683

>  <Mol2_MolInfo_Type>  (71) 
SMALL

>  <Mol2_MolInfo_Charge>  (71) 
USER_CHARGES

>  <Mol2_Substructures>  (71) 
     1 UNK         1 GROUP             0       ****    0 ROOT    

>  <Name>  (71) 
11683

>  <s_m_Source_Path>  (71) 
/home/jgilaber/drug_learning/drug_learning/datasets/SARS2

>  <s_m_Source_File>  (71) 
SIM_Broad_MProResults_ligprep.sd

>  <i_m_Source_File_Index>  (71) 
134

>  <s_m_subgroup_title>  (71) 
SIM_Broad_MProResults_ligprep

>  <s_m_subgroupid>  (71) 
SIM_Broad_MProResults_ligprep

>  <b_m_subgroup_collapsed>  (71) 
0

$$$$
11420
     RDKit          2D

 25 28  0  0  1  0  0  0  0  0999 V2000
    6.2466   -3.6962    0.0000 C   0  0  0  0  0  0  0  0  0  0  0  0
    5.2061   -2.6158    0.0000 C   0  0  0  0  0  0  0  0  0  0  0  0
    5.6215   -1.1744    0.0000 O   0  0  0  0  0  0  0  0  0  0  0  0
    4.5810   -0.0940    0.0000 C   0  0  0  0  0  0  0  0  0  0  0  0
    3.1250   -0.4549    0.0000 C   0  0  0  0  0  0  0  0  0  0  0  0
    2.0845    0.6255    0.0000 C   0  0  0  0  0  0  0  0  0  0  0  0
    2.4999    2.0668    0.0000 C   0  0  0  0  0  0  0  0  0  0  0  0
    1.4594    3.1472    0.0000 N   0  0  0  0  0  0  0  0  0  0  0  0
    0.0034    2.7863    0.0000 C   0  0  0  0  0  0  0  0  0  0  0  0
   -0.5603    1.3963    0.0000 N   0  0  0  0  0  0  0  0  0  0  0  0
   -2.0566    1.5029    0.0000 C   0  0  0  0  0  0  0  0  0  0  0  0
   -2.4175    2.9589    0.0000 C   0  0  0  0  0  0  0  0  0  0  0  0
   -1.1443    3.7520    0.0000 S   0  0  0  0  0  0  0  0  0  0  0  0
   -3.0223    0.3552    0.0000 C   0  0  0  0  0  0  0  0  0  0  0  0
   -4.5185    0.4618    0.0000 C   0  0  0  0  0  0  0  0  0  0  0  0
   -5.3116    1.7350    0.0000 C   0  0  0  0  0  0  0  0  0  0  0  0
   -5.0823   -0.9282    0.0000 N   0  0  0  0  0  0  0  0  0  0  0  0
   -3.9345   -1.8939    0.0000 C   0  0  0  0  0  0  0  0  0  0  0  0
   -3.8842   -3.3931    0.0000 C   0  0  0  0  0  0  0  0  0  0  0  0
   -2.5607   -4.0991    0.0000 C   0  0  0  0  0  0  0  0  0  0  0  0
   -1.2876   -3.3059    0.0000 C   0  0  0  0  0  0  0  0  0  0  0  0
   -1.3379   -1.8067    0.0000 C   0  0  0  0  0  0  0  0  0  0  0  0
   -2.6614   -1.1008    0.0000 N   0  0  0  0  0  0  0  0  0  0  0  0
    3.9558    2.4277    0.0000 C   0  0  0  0  0  0  0  0  0  0  0  0
    4.9964    1.3473    0.0000 C   0  0  0  0  0  0  0  0  0  0  0  0
  1  2  1  0
  2  3  1  0
  3  4  1  0
  4  5  2  0
  4 25  1  0
  5  6  1  0
  6  7  2  0
  7  8  1  0
  7 24  1  0
  8  9  1  0
  9 10  2  0
  9 13  1  0
 10 11  1  0
 11 12  2  0
 11 14  1  0
 12 13  1  0
 14 15  2  0
 14 23  1  0
 15 16  1  0
 15 17  1  0
 17 18  2  0
 18 19  1  0
 18 23  1  0
 19 20  2  0
 20 21  1  0
 21 22  2  0
 22 23  1  0
 24 25  2  0
M  END
>  <s_m_entry_id>  (72) 
124

>  <s_m_entry_name>  (72) 
SIM_Broad_MProResults_ligprep.124

>  <Mol2_MolInfo_Name>  (72) 
11420

>  <Mol2_MolInfo_Type>  (72) 
SMALL

>  <Mol2_MolInfo_Charge>  (72) 
USER_CHARGES

>  <Mol2_Substructures>  (72) 
     1 UNK         1 GROUP             0       ****    0 ROOT    

>  <Name>  (72) 
11420

>  <s_m_Source_Path>  (72) 
/home/jgilaber/drug_learning/drug_learning/datasets/SARS2

>  <s_m_Source_File>  (72) 
SIM_Broad_MProResults_ligprep.sd

>  <i_m_Source_File_Index>  (72) 
124

>  <s_m_subgroup_title>  (72) 
SIM_Broad_MProResults_ligprep

>  <s_m_subgroupid>  (72) 
SIM_Broad_MProResults_ligprep

>  <b_m_subgroup_collapsed>  (72) 
0

$$$$
12705
     RDKit          2D

 16 18  0  0  1  0  0  0  0  0999 V2000
   -3.3994    1.7912    0.0000 C   0  0  0  0  0  0  0  0  0  0  0  0
   -2.2216    0.8623    0.0000 C   0  0  0  0  0  0  0  0  0  0  0  0
   -2.4371   -0.6221    0.0000 N   0  0  0  0  0  0  0  0  0  0  0  0
   -3.8304   -1.1777    0.0000 C   0  0  0  0  0  0  0  0  0  0  0  0
   -5.0082   -0.2488    0.0000 C   0  0  0  0  0  0  0  0  0  0  0  0
   -4.7927    1.2356    0.0000 O   0  0  0  0  0  0  0  0  0  0  0  0
   -1.2593   -1.5510    0.0000 S   0  0  0  0  0  0  0  0  0  0  0  0
    0.1340   -0.9954    0.0000 C   0  0  0  0  0  0  0  0  0  0  0  0
    1.4024   -1.7961    0.0000 N   0  0  0  0  0  0  0  0  0  0  0  0
    2.5559   -0.8372    0.0000 C   0  0  0  0  0  0  0  0  0  0  0  0
    4.0403   -1.0527    0.0000 C   0  0  0  0  0  0  0  0  0  0  0  0
    4.9692    0.1251    0.0000 C   0  0  0  0  0  0  0  0  0  0  0  0
    4.4137    1.5184    0.0000 C   0  0  0  0  0  0  0  0  0  0  0  0
    2.9292    1.7339    0.0000 C   0  0  0  0  0  0  0  0  0  0  0  0
    2.0003    0.5561    0.0000 C   0  0  0  0  0  0  0  0  0  0  0  0
    0.5035    0.4583    0.0000 S   0  0  0  0  0  0  0  0  0  0  0  0
  1  2  1  0
  1  6  1  0
  2  3  1  0
  3  4  1  0
  3  7  1  0
  4  5  1  0
  5  6  1  0
  7  8  1  0
  8  9  2  0
  8 16  1  0
  9 10  1  0
 10 11  2  0
 10 15  1  0
 11 12  1  0
 12 13  2  0
 13 14  1  0
 14 15  2  0
 15 16  1  0
M  END
>  <s_m_entry_id>  (73) 
169

>  <s_m_entry_name>  (73) 
SIM_Broad_MProResults_ligprep.169

>  <Mol2_MolInfo_Name>  (73) 
12705

>  <Mol2_MolInfo_Type>  (73) 
SMALL

>  <Mol2_MolInfo_Charge>  (73) 
USER_CHARGES

>  <Mol2_Substructures>  (73) 
     1 UNK         1 GROUP             0       ****    0 ROOT    

>  <Name>  (73) 
12705

>  <s_m_Source_Path>  (73) 
/home/jgilaber/drug_learning/drug_learning/datasets/SARS2

>  <s_m_Source_File>  (73) 
SIM_Broad_MProResults_ligprep.sd

>  <i_m_Source_File_Index>  (73) 
169

>  <s_m_subgroup_title>  (73) 
SIM_Broad_MProResults_ligprep

>  <s_m_subgroupid>  (73) 
SIM_Broad_MProResults_ligprep

>  <b_m_subgroup_collapsed>  (73) 
0

$$$$
12403
     RDKit          2D

 20 22  0  0  1  0  0  0  0  0999 V2000
   -4.0049   -3.5085    0.0000 N   0  0  0  0  0  0  0  0  0  0  0  0
   -2.9299   -2.4625    0.0000 C   0  0  0  0  0  0  0  0  0  0  0  0
   -1.4517   -2.7173    0.0000 N   0  0  0  0  0  0  0  0  0  0  0  0
   -0.7525   -1.3902    0.0000 C   0  0  0  0  0  0  0  0  0  0  0  0
    0.7321   -1.1758    0.0000 C   0  0  0  0  0  0  0  0  0  0  0  0
    1.6601   -2.3542    0.0000 C   0  0  0  0  0  0  0  0  0  0  0  0
    3.1447   -2.1398    0.0000 C   0  0  0  0  0  0  0  0  0  0  0  0
    3.7013   -0.7469    0.0000 C   0  0  0  0  0  0  0  0  0  0  0  0
    5.1858   -0.5325    0.0000 Cl  0  0  0  0  0  0  0  0  0  0  0  0
    2.7733    0.4316    0.0000 C   0  0  0  0  0  0  0  0  0  0  0  0
    3.3299    1.8245    0.0000 Cl  0  0  0  0  0  0  0  0  0  0  0  0
    1.2887    0.2172    0.0000 C   0  0  0  0  0  0  0  0  0  0  0  0
   -1.7986   -0.3152    0.0000 C   0  0  0  0  0  0  0  0  0  0  0  0
   -3.1443   -0.9779    0.0000 S   0  0  0  0  0  0  0  0  0  0  0  0
   -1.5438    1.1630    0.0000 C   0  0  0  0  0  0  0  0  0  0  0  0
   -0.1362    1.6814    0.0000 C   0  0  0  0  0  0  0  0  0  0  0  0
    0.1186    3.1596    0.0000 C   0  0  0  0  0  0  0  0  0  0  0  0
   -1.0341    4.1194    0.0000 N   0  0  0  0  0  0  0  0  0  0  0  0
   -2.4417    3.6010    0.0000 C   0  0  0  0  0  0  0  0  0  0  0  0
   -2.6965    2.1228    0.0000 C   0  0  0  0  0  0  0  0  0  0  0  0
  1  2  1  0
  2  3  2  0
  2 14  1  0
  3  4  1  0
  4  5  1  0
  4 13  2  0
  5  6  2  0
  5 12  1  0
  6  7  1  0
  7  8  2  0
  8  9  1  0
  8 10  1  0
 10 11  1  0
 10 12  2  0
 13 14  1  0
 13 15  1  0
 15 16  2  0
 15 20  1  0
 16 17  1  0
 17 18  2  0
 18 19  1  0
 19 20  2  0
M  END
>  <s_m_entry_id>  (74) 
159

>  <s_m_entry_name>  (74) 
SIM_Broad_MProResults_ligprep.159

>  <Mol2_MolInfo_Name>  (74) 
12403

>  <Mol2_MolInfo_Type>  (74) 
SMALL

>  <Mol2_MolInfo_Charge>  (74) 
USER_CHARGES

>  <Mol2_Substructures>  (74) 
     1 UNK         1 GROUP             0       ****    0 ROOT    

>  <Name>  (74) 
12403

>  <s_m_Source_Path>  (74) 
/home/jgilaber/drug_learning/drug_learning/datasets/SARS2

>  <s_m_Source_File>  (74) 
SIM_Broad_MProResults_ligprep.sd

>  <i_m_Source_File_Index>  (74) 
159

>  <s_m_subgroup_title>  (74) 
SIM_Broad_MProResults_ligprep

>  <s_m_subgroupid>  (74) 
SIM_Broad_MProResults_ligprep

>  <b_m_subgroup_collapsed>  (74) 
0

$$$$
841
     RDKit          2D

 10  9  0  0  1  0  0  0  0  0999 V2000
   -4.8161   -0.6025    0.0000 C   0  0  0  0  0  0  0  0  0  0  0  0
   -3.5059    0.1278    0.0000 S   0  0  0  0  0  0  0  0  0  0  0  0
   -3.4833    1.6277    0.0000 O   0  0  0  0  0  0  0  0  0  0  0  0
   -2.2183   -0.6417    0.0000 C   0  0  0  0  0  0  0  0  0  0  0  0
   -0.9081    0.0887    0.0000 C   0  0  0  0  0  0  0  0  0  0  0  0
    0.3795   -0.6808    0.0000 C   0  0  0  0  0  0  0  0  0  0  0  0
    1.6897    0.0496    0.0000 C   0  0  0  0  0  0  0  0  0  0  0  0
    2.9773   -0.7199    0.0000 N   0  0  0  0  0  0  0  0  0  0  0  0
    4.2875    0.0104    0.0000 C   0  0  0  0  0  0  0  0  0  0  0  0
    5.5977    0.7408    0.0000 S   0  0  0  0  0  0  0  0  0  0  0  0
  1  2  1  0
  2  3  2  0
  2  4  1  0
  4  5  1  0
  5  6  1  0
  6  7  1  0
  7  8  1  0
  8  9  2  0
  9 10  2  0
M  END
>  <s_m_entry_id>  (75) 
241

>  <s_m_entry_name>  (75) 
SIM_Broad_MProResults_ligprep.241

>  <Mol2_MolInfo_Name>  (75) 
841

>  <Mol2_MolInfo_Type>  (75) 
SMALL

>  <Mol2_MolInfo_Charge>  (75) 
USER_CHARGES

>  <Mol2_Substructures>  (75) 
     1 UNK         1 GROUP             0       ****    0 ROOT    

>  <Name>  (75) 
841

>  <s_m_Source_Path>  (75) 
/home/jgilaber/drug_learning/drug_learning/datasets/SARS2

>  <s_m_Source_File>  (75) 
SIM_Broad_MProResults_ligprep.sd

>  <i_m_Source_File_Index>  (75) 
241

>  <s_m_subgroup_title>  (75) 
SIM_Broad_MProResults_ligprep

>  <s_m_subgroupid>  (75) 
SIM_Broad_MProResults_ligprep

>  <b_m_subgroup_collapsed>  (75) 
0

$$$$
7018
     RDKit          2D

 15 16  0  0  1  0  0  0  0  0999 V2000
   -2.8651    2.6779    0.0000 C   0  0  0  0  0  0  0  0  0  0  0  0
   -1.6498    1.7987    0.0000 C   0  0  0  0  0  0  0  0  0  0  0  0
   -1.8035    0.3066    0.0000 N   0  0  0  0  0  0  0  0  0  0  0  0
   -3.1009   -0.4461    0.0000 C   0  0  0  0  0  0  0  0  0  0  0  0
   -4.4725    0.1612    0.0000 O   0  0  0  0  0  0  0  0  0  0  0  0
   -2.7860   -1.9127    0.0000 N   0  0  0  0  0  0  0  0  0  0  0  0
   -1.2939   -2.0663    0.0000 N   0  0  0  0  0  0  0  0  0  0  0  0
   -0.6867   -0.6948    0.0000 C   0  0  0  0  0  0  0  0  0  0  0  0
    0.7799   -0.3798    0.0000 C   0  0  0  0  0  0  0  0  0  0  0  0
    1.7859   -1.4925    0.0000 C   0  0  0  0  0  0  0  0  0  0  0  0
    3.2525   -1.1775    0.0000 C   0  0  0  0  0  0  0  0  0  0  0  0
    3.7130    0.2500    0.0000 C   0  0  0  0  0  0  0  0  0  0  0  0
    5.1796    0.5649    0.0000 Cl  0  0  0  0  0  0  0  0  0  0  0  0
    2.7070    1.3626    0.0000 C   0  0  0  0  0  0  0  0  0  0  0  0
    1.2405    1.0477    0.0000 C   0  0  0  0  0  0  0  0  0  0  0  0
  1  2  1  0
  2  3  1  0
  3  4  1  0
  3  8  1  0
  4  5  2  0
  4  6  1  0
  6  7  1  0
  7  8  2  0
  8  9  1  0
  9 10  2  0
  9 15  1  0
 10 11  1  0
 11 12  2  0
 12 13  1  0
 12 14  1  0
 14 15  2  0
M  END
>  <s_m_entry_id>  (76) 
273

>  <s_m_entry_name>  (76) 
SIM_Broad_MProResults_ligprep.273

>  <Mol2_MolInfo_Name>  (76) 
7018

>  <Mol2_MolInfo_Type>  (76) 
SMALL

>  <Mol2_MolInfo_Charge>  (76) 
USER_CHARGES

>  <Mol2_Substructures>  (76) 
     1 UNK         1 GROUP             0       ****    0 ROOT    

>  <Name>  (76) 
7018

>  <s_m_Source_Path>  (76) 
/home/jgilaber/drug_learning/drug_learning/datasets/SARS2

>  <s_m_Source_File>  (76) 
SIM_Broad_MProResults_ligprep.sd

>  <i_m_Source_File_Index>  (76) 
273

>  <s_m_subgroup_title>  (76) 
SIM_Broad_MProResults_ligprep

>  <s_m_subgroupid>  (76) 
SIM_Broad_MProResults_ligprep

>  <b_m_subgroup_collapsed>  (76) 
0

$$$$
10512
     RDKit          2D

 14 14  0  0  1  0  0  0  0  0999 V2000
   -2.0094    1.6916    0.0000 O   0  0  0  0  0  0  0  0  0  0  0  0
   -2.3243    0.2250    0.0000 C   0  0  0  0  0  0  0  0  0  0  0  0
   -1.2116   -0.7809    0.0000 C   0  0  0  0  0  0  0  0  0  0  0  0
    0.2159   -0.3203    0.0000 C   0  0  0  0  0  0  0  0  0  0  0  0
    0.5308    1.1463    0.0000 C   0  0  0  0  0  0  0  0  0  0  0  0
    1.9583    1.6069    0.0000 C   0  0  0  0  0  0  0  0  0  0  0  0
    3.0710    0.6009    0.0000 C   0  0  0  0  0  0  0  0  0  0  0  0
    4.4985    1.0615    0.0000 O   0  0  0  0  0  0  0  0  0  0  0  0
    2.7561   -0.8657    0.0000 C   0  0  0  0  0  0  0  0  0  0  0  0
    3.8688   -1.8716    0.0000 O   0  0  0  0  0  0  0  0  0  0  0  0
    1.3286   -1.3263    0.0000 C   0  0  0  0  0  0  0  0  0  0  0  0
   -3.7518   -0.2356    0.0000 C   0  0  0  0  0  0  0  0  0  0  0  0
   -4.0666   -1.7022    0.0000 O   0  0  0  0  0  0  0  0  0  0  0  0
   -4.8644    0.7704    0.0000 O   0  0  0  0  0  0  0  0  0  0  0  0
  1  2  1  0
  2  3  1  0
  2 12  1  0
  3  4  1  0
  4  5  2  0
  4 11  1  0
  5  6  1  0
  6  7  2  0
  7  8  1  0
  7  9  1  0
  9 10  1  0
  9 11  2  0
 12 13  2  0
 12 14  1  0
M  CHG  1  14  -1
M  END
>  <s_m_entry_id>  (77) 
78

>  <s_m_entry_name>  (77) 
SIM_Broad_MProResults_ligprep.78

>  <Mol2_MolInfo_Name>  (77) 
10512

>  <Mol2_MolInfo_Type>  (77) 
SMALL

>  <Mol2_MolInfo_Charge>  (77) 
USER_CHARGES

>  <Mol2_Substructures>  (77) 
     1 UNK         1 GROUP             0       ****    0 ROOT    

>  <Name>  (77) 
10512

>  <s_m_Source_Path>  (77) 
/home/jgilaber/drug_learning/drug_learning/datasets/SARS2

>  <s_m_Source_File>  (77) 
SIM_Broad_MProResults_ligprep.sd

>  <i_m_Source_File_Index>  (77) 
78

>  <s_m_subgroup_title>  (77) 
SIM_Broad_MProResults_ligprep

>  <s_m_subgroupid>  (77) 
SIM_Broad_MProResults_ligprep

>  <b_m_subgroup_collapsed>  (77) 
0

$$$$
10666
     RDKit          2D

 12 11  0  0  1  0  0  0  0  0999 V2000
   -5.0085    1.6324    0.0000 C   0  0  0  0  0  0  0  0  0  0  0  0
   -3.6254    1.0520    0.0000 C   0  0  0  0  0  0  0  0  0  0  0  0
   -3.4365   -0.4361    0.0000 O   0  0  0  0  0  0  0  0  0  0  0  0
   -2.0534   -1.0166    0.0000 C   0  0  0  0  0  0  0  0  0  0  0  0
   -1.8646   -2.5047    0.0000 S   0  0  0  0  0  0  0  0  0  0  0  0
   -0.8591   -0.1090    0.0000 S   0  0  0  0  0  0  0  0  0  0  0  0
    0.5240   -0.6895    0.0000 S   0  0  0  0  0  0  0  0  0  0  0  0
    1.7183    0.2181    0.0000 C   0  0  0  0  0  0  0  0  0  0  0  0
    1.5294    1.7061    0.0000 S   0  0  0  0  0  0  0  0  0  0  0  0
    3.1014   -0.3624    0.0000 O   0  0  0  0  0  0  0  0  0  0  0  0
    4.2957    0.5451    0.0000 C   0  0  0  0  0  0  0  0  0  0  0  0
    5.6788   -0.0353    0.0000 C   0  0  0  0  0  0  0  0  0  0  0  0
  1  2  1  0
  2  3  1  0
  3  4  1  0
  4  5  2  0
  4  6  1  0
  6  7  1  0
  7  8  1  0
  8  9  2  0
  8 10  1  0
 10 11  1  0
 11 12  1  0
M  END
>  <s_m_entry_id>  (78) 
81

>  <s_m_entry_name>  (78) 
SIM_Broad_MProResults_ligprep.81

>  <Mol2_MolInfo_Name>  (78) 
10666

>  <Mol2_MolInfo_Type>  (78) 
SMALL

>  <Mol2_MolInfo_Charge>  (78) 
USER_CHARGES

>  <Mol2_Substructures>  (78) 
     1 UNK         1 GROUP             0       ****    0 ROOT    

>  <Name>  (78) 
10666

>  <s_m_Source_Path>  (78) 
/home/jgilaber/drug_learning/drug_learning/datasets/SARS2

>  <s_m_Source_File>  (78) 
SIM_Broad_MProResults_ligprep.sd

>  <i_m_Source_File_Index>  (78) 
81

>  <s_m_subgroup_title>  (78) 
SIM_Broad_MProResults_ligprep

>  <s_m_subgroupid>  (78) 
SIM_Broad_MProResults_ligprep

>  <b_m_subgroup_collapsed>  (78) 
0

$$$$
11993
     RDKit          2D

 14 13  0  0  1  0  0  0  0  0999 V2000
   -4.5607    0.1132    0.0000 C   0  0  0  0  0  0  0  0  0  0  0  0
   -3.2207   -0.5610    0.0000 S   0  0  0  0  0  0  0  0  0  0  0  0
   -1.9669    0.2624    0.0000 C   0  0  0  0  0  0  0  0  0  0  0  0
   -0.6269   -0.4117    0.0000 C   0  0  0  0  0  0  0  0  0  0  0  0
   -0.5407   -1.9092    0.0000 C   0  0  0  0  0  0  0  0  0  0  0  0
   -0.4546   -3.4067    0.0000 N   0  0  0  0  0  0  0  0  0  0  0  0
    0.6269    0.4117    0.0000 C   0  0  0  0  0  0  0  0  0  0  0  0
    1.9669   -0.2624    0.0000 C   0  0  0  0  0  0  0  0  0  0  0  0
    2.0531   -1.7600    0.0000 N   0  0  0  0  0  0  0  0  0  0  0  0
    3.2207    0.5610    0.0000 S   0  0  0  0  0  0  0  0  0  0  0  0
    4.5607   -0.1132    0.0000 C   0  0  0  0  0  0  0  0  0  0  0  0
    0.5407    1.9092    0.0000 C   0  0  0  0  0  0  0  0  0  0  0  0
    0.4546    3.4067    0.0000 N   0  0  0  0  0  0  0  0  0  0  0  0
   -2.0531    1.7600    0.0000 N   0  0  0  0  0  0  0  0  0  0  0  0
  1  2  1  0
  2  3  1  0
  3  4  2  0
  3 14  1  0
  4  5  1  0
  4  7  1  0
  5  6  3  0
  7  8  2  0
  7 12  1  0
  8  9  1  0
  8 10  1  0
 10 11  1  0
 12 13  3  0
M  END
>  <s_m_entry_id>  (79) 
148

>  <s_m_entry_name>  (79) 
SIM_Broad_MProResults_ligprep.148

>  <Mol2_MolInfo_Name>  (79) 
11993

>  <Mol2_MolInfo_Type>  (79) 
SMALL

>  <Mol2_MolInfo_Charge>  (79) 
USER_CHARGES

>  <Mol2_Substructures>  (79) 
     1 UNK         1 GROUP             0       ****    0 ROOT    

>  <Name>  (79) 
11993

>  <s_m_Source_Path>  (79) 
/home/jgilaber/drug_learning/drug_learning/datasets/SARS2

>  <s_m_Source_File>  (79) 
SIM_Broad_MProResults_ligprep.sd

>  <i_m_Source_File_Index>  (79) 
148

>  <s_m_subgroup_title>  (79) 
SIM_Broad_MProResults_ligprep

>  <s_m_subgroupid>  (79) 
SIM_Broad_MProResults_ligprep

>  <b_m_subgroup_collapsed>  (79) 
0

$$$$
12238
     RDKit          2D

 20 22  0  0  1  0  0  0  0  0999 V2000
    3.1517    3.3495    0.0000 N   0  0  0  0  0  0  0  0  0  0  0  0
    2.9779    1.8596    0.0000 C   0  0  0  0  0  0  0  0  0  0  0  0
    4.1813    0.9642    0.0000 N   0  0  0  0  0  0  0  0  0  0  0  0
    4.0075   -0.5257    0.0000 C   0  0  0  0  0  0  0  0  0  0  0  0
    5.2109   -1.4212    0.0000 S   0  0  0  0  0  0  0  0  0  0  0  0
    2.6303   -1.1202    0.0000 C   0  0  0  0  0  0  0  0  0  0  0  0
    2.1505   -2.5414    0.0000 N   0  0  0  0  0  0  0  0  0  0  0  0
    0.6506   -2.5242    0.0000 C   0  0  0  0  0  0  0  0  0  0  0  0
    0.2034   -1.0925    0.0000 N   0  0  0  0  0  0  0  0  0  0  0  0
   -1.2178   -0.6127    0.0000 C   0  0  0  0  0  0  0  0  0  0  0  0
   -2.4413   -1.4805    0.0000 O   0  0  0  0  0  0  0  0  0  0  0  0
   -3.6447   -0.5850    0.0000 C   0  0  0  0  0  0  0  0  0  0  0  0
   -5.0765   -1.0322    0.0000 C   0  0  0  0  0  0  0  0  0  0  0  0
   -6.1796   -0.0159    0.0000 O   0  0  0  0  0  0  0  0  0  0  0  0
   -3.1649    0.8362    0.0000 C   0  0  0  0  0  0  0  0  0  0  0  0
   -4.0327    2.0597    0.0000 O   0  0  0  0  0  0  0  0  0  0  0  0
   -1.6650    0.8191    0.0000 C   0  0  0  0  0  0  0  0  0  0  0  0
   -0.7695    2.0225    0.0000 O   0  0  0  0  0  0  0  0  0  0  0  0
    1.4269   -0.2247    0.0000 C   0  0  0  0  0  0  0  0  0  0  0  0
    1.6007    1.2652    0.0000 N   0  0  0  0  0  0  0  0  0  0  0  0
  1  2  1  0
  2  3  1  0
  2 20  2  0
  3  4  1  0
  4  5  2  0
  4  6  1  0
  6  7  1  0
  6 19  2  0
  7  8  2  0
  8  9  1  0
  9 10  1  0
  9 19  1  0
 10 11  1  0
 10 17  1  0
 11 12  1  0
 12 13  1  0
 12 15  1  0
 13 14  1  0
 15 16  1  0
 15 17  1  0
 17 18  1  0
 19 20  1  0
M  END
>  <s_m_entry_id>  (80) 
154

>  <s_m_entry_name>  (80) 
SIM_Broad_MProResults_ligprep.154

>  <Mol2_MolInfo_Name>  (80) 
12238

>  <Mol2_MolInfo_Type>  (80) 
SMALL

>  <Mol2_MolInfo_Charge>  (80) 
USER_CHARGES

>  <Mol2_Substructures>  (80) 
     1 UNK         1 GROUP             0       ****    0 ROOT    

>  <Name>  (80) 
12238

>  <s_m_Source_Path>  (80) 
/home/jgilaber/drug_learning/drug_learning/datasets/SARS2

>  <s_m_Source_File>  (80) 
SIM_Broad_MProResults_ligprep.sd

>  <i_m_Source_File_Index>  (80) 
154

>  <s_m_subgroup_title>  (80) 
SIM_Broad_MProResults_ligprep

>  <s_m_subgroupid>  (80) 
SIM_Broad_MProResults_ligprep

>  <b_m_subgroup_collapsed>  (80) 
0

$$$$
12663
     RDKit          2D

 20 22  0  0  1  0  0  0  0  0999 V2000
   -2.7639    2.5577    0.0000 O   0  0  0  0  0  0  0  0  0  0  0  0
   -2.7059    1.0588    0.0000 C   0  0  0  0  0  0  0  0  0  0  0  0
   -1.3789    0.3595    0.0000 C   0  0  0  0  0  0  0  0  0  0  0  0
   -0.1098    1.1591    0.0000 C   0  0  0  0  0  0  0  0  0  0  0  0
    1.2172    0.4598    0.0000 C   0  0  0  0  0  0  0  0  0  0  0  0
    1.2752   -1.0390    0.0000 C   0  0  0  0  0  0  0  0  0  0  0  0
    2.6022   -1.7383    0.0000 C   0  0  0  0  0  0  0  0  0  0  0  0
    3.8713   -0.9387    0.0000 C   0  0  0  0  0  0  0  0  0  0  0  0
    5.1983   -1.6380    0.0000 C   0  0  0  0  0  0  0  0  0  0  0  0
    6.4674   -0.8384    0.0000 C   0  0  0  0  0  0  0  0  0  0  0  0
    6.4095    0.6605    0.0000 C   0  0  0  0  0  0  0  0  0  0  0  0
    5.0825    1.3598    0.0000 C   0  0  0  0  0  0  0  0  0  0  0  0
    3.8134    0.5602    0.0000 C   0  0  0  0  0  0  0  0  0  0  0  0
    2.4863    1.2595    0.0000 N   0  0  0  0  0  0  0  0  0  0  0  0
   -3.9750    0.2592    0.0000 C   0  0  0  0  0  0  0  0  0  0  0  0
   -5.3021    0.9585    0.0000 C   0  0  0  0  0  0  0  0  0  0  0  0
   -6.5712    0.1589    0.0000 C   0  0  0  0  0  0  0  0  0  0  0  0
   -6.5133   -1.3400    0.0000 N   0  0  0  0  0  0  0  0  0  0  0  0
   -5.1862   -2.0393    0.0000 C   0  0  0  0  0  0  0  0  0  0  0  0
   -3.9171   -1.2397    0.0000 C   0  0  0  0  0  0  0  0  0  0  0  0
  1  2  2  0
  2  3  1  0
  2 15  1  0
  3  4  2  0
  4  5  1  0
  5  6  2  0
  5 14  1  0
  6  7  1  0
  7  8  2  0
  8  9  1  0
  8 13  1  0
  9 10  2  0
 10 11  1  0
 11 12  2  0
 12 13  1  0
 13 14  2  0
 15 16  2  0
 15 20  1  0
 16 17  1  0
 17 18  2  0
 18 19  1  0
 19 20  2  0
M  END
>  <s_m_entry_id>  (81) 
167

>  <s_m_entry_name>  (81) 
SIM_Broad_MProResults_ligprep.167

>  <Mol2_MolInfo_Name>  (81) 
12663

>  <Mol2_MolInfo_Type>  (81) 
SMALL

>  <Mol2_MolInfo_Charge>  (81) 
USER_CHARGES

>  <Mol2_Substructures>  (81) 
     1 UNK         1 GROUP             0       ****    0 ROOT    

>  <Name>  (81) 
12663

>  <s_m_Source_Path>  (81) 
/home/jgilaber/drug_learning/drug_learning/datasets/SARS2

>  <s_m_Source_File>  (81) 
SIM_Broad_MProResults_ligprep.sd

>  <i_m_Source_File_Index>  (81) 
167

>  <s_m_subgroup_title>  (81) 
SIM_Broad_MProResults_ligprep

>  <s_m_subgroupid>  (81) 
SIM_Broad_MProResults_ligprep

>  <b_m_subgroup_collapsed>  (81) 
0

$$$$
6967
     RDKit          2D

 52 60  0  0  1  0  0  0  0  0999 V2000
    8.6326   -1.3457    0.0000 O   0  0  0  0  0  0  0  0  0  0  0  0
    7.3894   -2.1850    0.0000 C   0  0  0  0  0  0  0  0  0  0  0  0
    7.4946   -3.6813    0.0000 C   0  0  0  0  0  0  0  0  0  0  0  0
    6.2513   -4.5205    0.0000 C   0  0  0  0  0  0  0  0  0  0  0  0
    4.9029   -3.8635    0.0000 C   0  0  0  0  0  0  0  0  0  0  0  0
    4.7977   -2.3672    0.0000 C   0  0  0  0  0  0  0  0  0  0  0  0
    6.0409   -1.5279    0.0000 C   0  0  0  0  0  0  0  0  0  0  0  0
    3.4492   -1.7101    0.0000 C   0  0  0  0  0  0  0  0  0  0  0  0
    2.5418   -2.9045    0.0000 C   0  0  0  0  0  0  0  0  0  0  0  0
    2.5685   -4.4043    0.0000 C   0  0  0  0  0  0  0  0  0  0  0  0
    1.1504   -4.8931    0.0000 C   0  0  0  0  0  0  0  0  0  0  0  0
    0.2472   -3.6955    0.0000 C   0  0  0  0  0  0  0  0  0  0  0  0
    1.1071   -2.4665    0.0000 N   0  0  0  0  0  0  0  0  0  0  0  0
   -1.6906   -3.4821    0.0000 C   0  0  0  0  0  0  0  0  0  0  0  0
   -2.3477   -4.8306    0.0000 C   0  0  0  0  0  0  0  0  0  0  0  0
   -3.8440   -4.9358    0.0000 C   0  0  0  0  0  0  0  0  0  0  0  0
   -4.5010   -6.2842    0.0000 C   0  0  0  0  0  0  0  0  0  0  0  0
   -3.6618   -7.5275    0.0000 C   0  0  0  0  0  0  0  0  0  0  0  0
   -2.1655   -7.4223    0.0000 C   0  0  0  0  0  0  0  0  0  0  0  0
   -1.3262   -8.6655    0.0000 O   0  0  0  0  0  0  0  0  0  0  0  0
   -1.5084   -6.0738    0.0000 C   0  0  0  0  0  0  0  0  0  0  0  0
   -2.8850   -2.5747    0.0000 C   0  0  0  0  0  0  0  0  0  0  0  0
   -4.3847   -2.6014    0.0000 C   0  0  0  0  0  0  0  0  0  0  0  0
   -4.8736   -1.1833    0.0000 C   0  0  0  0  0  0  0  0  0  0  0  0
   -3.8440    0.2070    0.0000 C   0  0  0  0  0  0  0  0  0  0  0  0
   -3.6411   -1.2792    0.0000 N   0  0  0  0  0  0  0  0  0  0  0  0
   -3.4626    1.6578    0.0000 C   0  0  0  0  0  0  0  0  0  0  0  0
   -4.8111    2.3148    0.0000 C   0  0  0  0  0  0  0  0  0  0  0  0
   -4.9163    3.8111    0.0000 C   0  0  0  0  0  0  0  0  0  0  0  0
   -6.2647    4.4681    0.0000 C   0  0  0  0  0  0  0  0  0  0  0  0
   -7.5080    3.6289    0.0000 C   0  0  0  0  0  0  0  0  0  0  0  0
   -7.4028    2.1326    0.0000 C   0  0  0  0  0  0  0  0  0  0  0  0
   -8.6460    1.2933    0.0000 O   0  0  0  0  0  0  0  0  0  0  0  0
   -6.0543    1.4755    0.0000 C   0  0  0  0  0  0  0  0  0  0  0  0
   -2.5551    2.8521    0.0000 C   0  0  0  0  0  0  0  0  0  0  0  0
   -2.5819    4.3519    0.0000 C   0  0  0  0  0  0  0  0  0  0  0  0
   -1.1638    4.8408    0.0000 C   0  0  0  0  0  0  0  0  0  0  0  0
    0.2265    3.8111    0.0000 C   0  0  0  0  0  0  0  0  0  0  0  0
   -1.2597    3.6083    0.0000 N   0  0  0  0  0  0  0  0  0  0  0  0
    1.6773    3.4297    0.0000 C   0  0  0  0  0  0  0  0  0  0  0  0
    2.8716    2.5223    0.0000 C   0  0  0  0  0  0  0  0  0  0  0  0
    4.3714    2.5490    0.0000 C   0  0  0  0  0  0  0  0  0  0  0  0
    4.8603    1.1309    0.0000 C   0  0  0  0  0  0  0  0  0  0  0  0
    3.8306   -0.2594    0.0000 C   0  0  0  0  0  0  0  0  0  0  0  0
    3.6278    1.2268    0.0000 N   0  0  0  0  0  0  0  0  0  0  0  0
    2.3343    4.7782    0.0000 C   0  0  0  0  0  0  0  0  0  0  0  0
    3.8306    4.8834    0.0000 C   0  0  0  0  0  0  0  0  0  0  0  0
    4.4876    6.2318    0.0000 C   0  0  0  0  0  0  0  0  0  0  0  0
    3.6484    7.4751    0.0000 C   0  0  0  0  0  0  0  0  0  0  0  0
    2.1521    7.3699    0.0000 C   0  0  0  0  0  0  0  0  0  0  0  0
    1.3128    8.6131    0.0000 O   0  0  0  0  0  0  0  0  0  0  0  0
    1.4950    6.0214    0.0000 C   0  0  0  0  0  0  0  0  0  0  0  0
  1  2  1  0
  2  3  2  0
  2  7  1  0
  3  4  1  0
  4  5  2  0
  5  6  1  0
  6  7  2  0
  6  8  1  0
  8  9  2  0
  8 44  1  0
  9 10  1  0
  9 13  1  0
 10 11  1  0
 11 12  1  0
 12 13  2  0
 12 14  1  0
 14 15  1  0
 14 22  2  0
 15 16  2  0
 15 21  1  0
 16 17  1  0
 17 18  2  0
 18 19  1  0
 19 20  1  0
 19 21  2  0
 22 23  1  0
 22 26  1  0
 23 24  2  0
 24 25  1  0
 25 26  1  0
 25 27  2  0
 27 28  1  0
 27 35  1  0
 28 29  2  0
 28 34  1  0
 29 30  1  0
 30 31  2  0
 31 32  1  0
 32 33  1  0
 32 34  2  0
 35 36  2  0
 35 39  1  0
 36 37  1  0
 37 38  2  0
 38 39  1  0
 38 40  1  0
 40 41  2  0
 40 46  1  0
 41 42  1  0
 41 45  1  0
 42 43  1  0
 43 44  2  0
 44 45  1  0
 46 47  2  0
 46 52  1  0
 47 48  1  0
 48 49  2  0
 49 50  1  0
 50 51  1  0
 50 52  2  0
M  END
>  <s_m_entry_id>  (82) 
272

>  <s_m_entry_name>  (82) 
SIM_Broad_MProResults_ligprep.272

>  <Mol2_MolInfo_Name>  (82) 
6967

>  <Mol2_MolInfo_Type>  (82) 
SMALL

>  <Mol2_MolInfo_Charge>  (82) 
USER_CHARGES

>  <Mol2_Substructures>  (82) 
     1 UNK         1 GROUP             0       ****    0 ROOT    

>  <Name>  (82) 
6967

>  <s_m_Source_Path>  (82) 
/home/jgilaber/drug_learning/drug_learning/datasets/SARS2

>  <s_m_Source_File>  (82) 
SIM_Broad_MProResults_ligprep.sd

>  <i_m_Source_File_Index>  (82) 
272

>  <s_m_subgroup_title>  (82) 
SIM_Broad_MProResults_ligprep

>  <s_m_subgroupid>  (82) 
SIM_Broad_MProResults_ligprep

>  <b_m_subgroup_collapsed>  (82) 
0

$$$$
10283
     RDKit          2D

 49 54  0  0  1  0  0  0  0  0999 V2000
   -4.5786   -6.5857    0.0000 C   0  0  0  0  0  0  0  0  0  0  0  0
   -3.0809   -6.6680    0.0000 O   0  0  0  0  0  0  0  0  0  0  0  0
   -2.2607   -5.4121    0.0000 C   0  0  0  0  0  0  0  0  0  0  0  0
   -2.9383   -4.0738    0.0000 C   0  0  0  0  0  0  0  0  0  0  0  0
   -2.1181   -2.8179    0.0000 C   0  0  0  0  0  0  0  0  0  0  0  0
   -0.6204   -2.9002    0.0000 C   0  0  0  0  0  0  0  0  0  0  0  0
    0.0572   -4.2384    0.0000 C   0  0  0  0  0  0  0  0  0  0  0  0
   -0.7630   -5.4944    0.0000 C   0  0  0  0  0  0  0  0  0  0  0  0
    1.5393   -4.0076    0.0000 N   0  0  0  0  0  0  0  0  0  0  0  0
    1.7777   -2.5266    0.0000 C   0  0  0  0  0  0  0  0  0  0  0  0
    3.1160   -1.8490    0.0000 S   0  0  0  0  0  0  0  0  0  0  0  0
    3.1983   -0.3513    0.0000 O   0  0  0  0  0  0  0  0  0  0  0  0
    4.3719   -2.6692    0.0000 C   0  0  0  0  0  0  0  0  0  0  0  0
    5.7101   -1.9916    0.0000 C   0  0  0  0  0  0  0  0  0  0  0  0
    6.9660   -2.8117    0.0000 N   0  0  0  0  0  0  0  0  0  0  0  0
    8.3043   -2.1342    0.0000 C   0  0  0  0  0  0  0  0  0  0  0  0
    8.3866   -0.6364    0.0000 C   0  0  0  0  0  0  0  0  0  0  0  0
    9.7248    0.0412    0.0000 C   0  0  0  0  0  0  0  0  0  0  0  0
    7.1307    0.1837    0.0000 C   0  0  0  0  0  0  0  0  0  0  0  0
    7.2130    1.6815    0.0000 O   0  0  0  0  0  0  0  0  0  0  0  0
    5.9570    2.5016    0.0000 C   0  0  0  0  0  0  0  0  0  0  0  0
    5.7924   -0.4939    0.0000 C   0  0  0  0  0  0  0  0  0  0  0  0
    4.5365    0.3263    0.0000 C   0  0  0  0  0  0  0  0  0  0  0  0
    0.4429   -1.8422    0.0000 N   0  0  0  0  0  0  0  0  0  0  0  0
    0.2121   -0.3601    0.0000 Mg  0  0  0  0  0  2  0  0  0  0  0  0
   -0.0188    1.1220    0.0000 N   0  0  0  0  0  0  0  0  0  0  0  0
   -1.3536    1.8064    0.0000 C   0  0  0  0  0  0  0  0  0  0  0  0
   -1.1152    3.2873    0.0000 N   0  0  0  0  0  0  0  0  0  0  0  0
    0.3669    3.5182    0.0000 C   0  0  0  0  0  0  0  0  0  0  0  0
    1.1871    4.7741    0.0000 C   0  0  0  0  0  0  0  0  0  0  0  0
    2.6848    4.6918    0.0000 C   0  0  0  0  0  0  0  0  0  0  0  0
    3.5050    5.9478    0.0000 O   0  0  0  0  0  0  0  0  0  0  0  0
    2.8274    7.2860    0.0000 C   0  0  0  0  0  0  0  0  0  0  0  0
    3.3624    3.3536    0.0000 C   0  0  0  0  0  0  0  0  0  0  0  0
    2.5423    2.0977    0.0000 C   0  0  0  0  0  0  0  0  0  0  0  0
    1.0445    2.1800    0.0000 C   0  0  0  0  0  0  0  0  0  0  0  0
   -2.6918    1.1288    0.0000 S   0  0  0  0  0  0  0  0  0  0  0  0
   -2.7742   -0.3689    0.0000 O   0  0  0  0  0  0  0  0  0  0  0  0
   -3.9478    1.9489    0.0000 C   0  0  0  0  0  0  0  0  0  0  0  0
   -5.2860    1.2714    0.0000 C   0  0  0  0  0  0  0  0  0  0  0  0
   -5.3683   -0.2264    0.0000 N   0  0  0  0  0  0  0  0  0  0  0  0
   -6.7065   -0.9040    0.0000 C   0  0  0  0  0  0  0  0  0  0  0  0
   -7.9625   -0.0838    0.0000 C   0  0  0  0  0  0  0  0  0  0  0  0
   -9.3007   -0.7614    0.0000 C   0  0  0  0  0  0  0  0  0  0  0  0
   -7.8802    1.4139    0.0000 C   0  0  0  0  0  0  0  0  0  0  0  0
   -9.1361    2.2341    0.0000 O   0  0  0  0  0  0  0  0  0  0  0  0
   -9.0538    3.7318    0.0000 C   0  0  0  0  0  0  0  0  0  0  0  0
   -6.5419    2.0915    0.0000 C   0  0  0  0  0  0  0  0  0  0  0  0
   -6.4596    3.5892    0.0000 C   0  0  0  0  0  0  0  0  0  0  0  0
  1  2  1  0
  2  3  1  0
  3  4  2  0
  3  8  1  0
  4  5  1  0
  5  6  2  0
  6  7  1  0
  6 24  1  0
  7  8  2  0
  7  9  1  0
  9 10  1  0
 10 11  1  0
 10 24  2  0
 11 12  2  0
 11 13  1  0
 13 14  1  0
 14 15  1  0
 14 22  2  0
 15 16  1  0
 16 17  2  0
 17 18  1  0
 17 19  1  0
 19 20  1  0
 19 22  1  0
 20 21  1  0
 22 23  1  0
 24 25  1  0
 25 26  1  0
 26 27  2  0
 26 36  1  0
 27 28  1  0
 27 37  1  0
 28 29  1  0
 29 30  2  0
 29 36  1  0
 30 31  1  0
 31 32  1  0
 31 34  2  0
 32 33  1  0
 34 35  1  0
 35 36  2  0
 37 38  2  0
 37 39  1  0
 39 40  1  0
 40 41  2  0
 40 48  1  0
 41 42  1  0
 42 43  2  0
 43 44  1  0
 43 45  1  0
 45 46  1  0
 45 48  2  0
 46 47  1  0
 48 49  1  0
M  CHG  2  24   1  26   1
M  END
>  <s_m_entry_id>  (83) 
50

>  <s_m_entry_name>  (83) 
SIM_Broad_MProResults_ligprep.50

>  <Mol2_MolInfo_Name>  (83) 
10283

>  <Mol2_MolInfo_Type>  (83) 
SMALL

>  <Mol2_MolInfo_Charge>  (83) 
USER_CHARGES

>  <Mol2_Substructures>  (83) 
     1 UNK         1 GROUP             0       ****    0 ROOT    

>  <Name>  (83) 
10283

>  <s_m_Source_Path>  (83) 
/home/jgilaber/drug_learning/drug_learning/datasets/SARS2

>  <s_m_Source_File>  (83) 
SIM_Broad_MProResults_ligprep.sd

>  <i_m_Source_File_Index>  (83) 
50

>  <s_m_subgroup_title>  (83) 
SIM_Broad_MProResults_ligprep

>  <s_m_subgroupid>  (83) 
SIM_Broad_MProResults_ligprep

>  <b_m_subgroup_collapsed>  (83) 
0

$$$$
348
     RDKit          2D

 25 27  0  0  1  0  0  0  0  0999 V2000
   -1.0935   -0.8442    0.0000 C   0  0  0  0  0  0  0  0  0  0  0  0
   -1.6567    0.5461    0.0000 C   0  0  0  0  0  0  0  0  0  0  0  0
   -3.1423    0.7535    0.0000 C   0  0  0  0  0  0  0  0  0  0  0  0
   -4.0647   -0.4294    0.0000 O   0  0  0  0  0  0  0  0  0  0  0  0
   -5.5503   -0.2220    0.0000 C   0  0  0  0  0  0  0  0  0  0  0  0
   -6.4727   -1.4048    0.0000 C   0  0  0  0  0  0  0  0  0  0  0  0
   -7.3951   -2.5877    0.0000 F   0  0  0  0  0  0  0  0  0  0  0  0
   -7.6556   -0.4824    0.0000 F   0  0  0  0  0  0  0  0  0  0  0  0
   -5.2898   -2.3272    0.0000 F   0  0  0  0  0  0  0  0  0  0  0  0
   -3.7055    2.1437    0.0000 C   0  0  0  0  0  0  0  0  0  0  0  0
   -2.7831    3.3266    0.0000 C   0  0  0  0  0  0  0  0  0  0  0  0
   -1.2975    3.1192    0.0000 N   0  0  0  0  0  0  0  0  0  0  0  0
   -0.7343    1.7289    0.0000 C   0  0  0  0  0  0  0  0  0  0  0  0
    0.7513    1.5215    0.0000 C   0  0  0  0  0  0  0  0  0  0  0  0
    1.3145    0.1313    0.0000 S   0  0  0  0  0  0  0  0  0  0  0  0
    0.3921   -1.0516    0.0000 O   0  0  0  0  0  0  0  0  0  0  0  0
    2.8001   -0.0761    0.0000 C   0  0  0  0  0  0  0  0  0  0  0  0
    3.5055   -1.3999    0.0000 N   0  0  0  0  0  0  0  0  0  0  0  0
    4.9825   -1.1381    0.0000 C   0  0  0  0  0  0  0  0  0  0  0  0
    6.1653   -2.0605    0.0000 C   0  0  0  0  0  0  0  0  0  0  0  0
    7.5556   -1.4973    0.0000 C   0  0  0  0  0  0  0  0  0  0  0  0
    7.7630   -0.0117    0.0000 C   0  0  0  0  0  0  0  0  0  0  0  0
    6.5801    0.9107    0.0000 C   0  0  0  0  0  0  0  0  0  0  0  0
    5.1899    0.3475    0.0000 C   0  0  0  0  0  0  0  0  0  0  0  0
    3.8411    1.0038    0.0000 N   0  0  0  0  0  0  0  0  0  0  0  0
  1  2  1  0
  2  3  2  0
  2 13  1  0
  3  4  1  0
  3 10  1  0
  4  5  1  0
  5  6  1  0
  6  7  1  0
  6  8  1  0
  6  9  1  0
 10 11  2  0
 11 12  1  0
 12 13  1  0
 13 14  1  0
 14 15  1  0
 15 16  2  0
 15 17  1  0
 17 18  2  0
 17 25  1  0
 18 19  1  0
 19 20  2  0
 19 24  1  0
 20 21  1  0
 21 22  2  0
 22 23  1  0
 23 24  2  0
 24 25  1  0
M  END
>  <s_m_entry_id>  (84) 
175

>  <s_m_entry_name>  (84) 
SIM_Broad_MProResults_ligprep.175

>  <Mol2_MolInfo_Name>  (84) 
348

>  <Mol2_MolInfo_Type>  (84) 
SMALL

>  <Mol2_MolInfo_Charge>  (84) 
USER_CHARGES

>  <Mol2_Substructures>  (84) 
     1 ****        1 GROUP             0       ****    0 ROOT    

>  <Name>  (84) 
348

>  <s_m_Source_Path>  (84) 
/home/jgilaber/drug_learning/drug_learning/datasets/SARS2

>  <s_m_Source_File>  (84) 
SIM_Broad_MProResults_ligprep.sd

>  <i_m_Source_File_Index>  (84) 
175

>  <s_m_subgroup_title>  (84) 
SIM_Broad_MProResults_ligprep

>  <s_m_subgroupid>  (84) 
SIM_Broad_MProResults_ligprep

>  <b_m_subgroup_collapsed>  (84) 
0

$$$$
2491
     RDKit          2D

 24 26  0  0  1  0  0  0  0  0999 V2000
   -7.7473   -1.3790    0.0000 F   0  0  0  0  0  0  0  0  0  0  0  0
   -6.4193   -0.6816    0.0000 C   0  0  0  0  0  0  0  0  0  0  0  0
   -7.1168    0.6464    0.0000 F   0  0  0  0  0  0  0  0  0  0  0  0
   -5.7218   -2.0095    0.0000 F   0  0  0  0  0  0  0  0  0  0  0  0
   -5.0913    0.0159    0.0000 C   0  0  0  0  0  0  0  0  0  0  0  0
   -5.0314    1.5147    0.0000 C   0  0  0  0  0  0  0  0  0  0  0  0
   -3.7034    2.2122    0.0000 C   0  0  0  0  0  0  0  0  0  0  0  0
   -2.4354    1.4109    0.0000 C   0  0  0  0  0  0  0  0  0  0  0  0
   -1.1074    2.1084    0.0000 C   0  0  0  0  0  0  0  0  0  0  0  0
    0.1606    1.3071    0.0000 C   0  0  0  0  0  0  0  0  0  0  0  0
    0.1007   -0.1917    0.0000 C   0  0  0  0  0  0  0  0  0  0  0  0
    1.3687   -0.9930    0.0000 C   0  0  0  0  0  0  0  0  0  0  0  0
    2.6967   -0.2955    0.0000 C   0  0  0  0  0  0  0  0  0  0  0  0
    3.9647   -1.0968    0.0000 C   0  0  0  0  0  0  0  0  0  0  0  0
    3.9048   -2.5956    0.0000 O   0  0  0  0  0  0  0  0  0  0  0  0
    5.2927   -0.3993    0.0000 C   0  0  0  0  0  0  0  0  0  0  0  0
    6.5607   -1.2006    0.0000 C   0  0  0  0  0  0  0  0  0  0  0  0
    7.8887   -0.5031    0.0000 C   0  0  0  0  0  0  0  0  0  0  0  0
    7.9486    0.9957    0.0000 N   0  0  0  0  0  0  0  0  0  0  0  0
    6.6806    1.7970    0.0000 C   0  0  0  0  0  0  0  0  0  0  0  0
    5.3526    1.0995    0.0000 C   0  0  0  0  0  0  0  0  0  0  0  0
   -1.2273   -0.8892    0.0000 N   0  0  0  0  0  0  0  0  0  0  0  0
   -2.4953   -0.0879    0.0000 C   0  0  0  0  0  0  0  0  0  0  0  0
   -3.8233   -0.7854    0.0000 C   0  0  0  0  0  0  0  0  0  0  0  0
  1  2  1  0
  2  3  1  0
  2  4  1  0
  2  5  1  0
  5  6  2  0
  5 24  1  0
  6  7  1  0
  7  8  2  0
  8  9  1  0
  8 23  1  0
  9 10  2  0
 10 11  1  0
 11 12  1  0
 11 22  2  0
 12 13  2  0
 13 14  1  0
 14 15  2  0
 14 16  1  0
 16 17  2  0
 16 21  1  0
 17 18  1  0
 18 19  2  0
 19 20  1  0
 20 21  2  0
 22 23  1  0
 23 24  2  0
M  END
>  <s_m_entry_id>  (85) 
244

>  <s_m_entry_name>  (85) 
SIM_Broad_MProResults_ligprep.244

>  <Mol2_MolInfo_Name>  (85) 
2491

>  <Mol2_MolInfo_Type>  (85) 
SMALL

>  <Mol2_MolInfo_Charge>  (85) 
USER_CHARGES

>  <Mol2_Substructures>  (85) 
     1 UNK         1 GROUP             0       ****    0 ROOT    

>  <Name>  (85) 
2491

>  <s_m_Source_Path>  (85) 
/home/jgilaber/drug_learning/drug_learning/datasets/SARS2

>  <s_m_Source_File>  (85) 
SIM_Broad_MProResults_ligprep.sd

>  <i_m_Source_File_Index>  (85) 
244

>  <s_m_subgroup_title>  (85) 
SIM_Broad_MProResults_ligprep

>  <s_m_subgroupid>  (85) 
SIM_Broad_MProResults_ligprep

>  <b_m_subgroup_collapsed>  (85) 
0

$$$$
9591
     RDKit          2D

 58 63  0  0  1  0  0  0  0  0999 V2000
    3.1210   -3.2580    0.0000 C   0  0  0  0  0  0  0  0  0  0  0  0
    2.6687   -1.8278    0.0000 C   0  0  0  0  0  0  0  0  0  0  0  0
    1.2040   -1.5044    0.0000 C   0  0  0  0  0  0  0  0  0  0  0  0
    0.7517   -0.0742    0.0000 C   0  0  0  0  0  0  0  0  0  0  0  0
    1.7641    1.0326    0.0000 C   0  0  0  0  0  0  0  0  0  0  0  0
    3.2288    0.7092    0.0000 C   0  0  0  0  0  0  0  0  0  0  0  0
    3.6811   -0.7210    0.0000 C   0  0  0  0  0  0  0  0  0  0  0  0
    5.1459   -1.0444    0.0000 N   0  0  0  0  0  0  0  0  0  0  0  0
    6.1583    0.0624    0.0000 N   0  0  0  0  0  0  0  0  0  0  0  0
    7.6230   -0.2610    0.0000 C   0  0  0  0  0  0  0  0  0  0  0  0
    8.0753   -1.6911    0.0000 C   0  0  0  0  0  0  0  0  0  0  0  0
    9.5400   -2.0145    0.0000 C   0  0  0  0  0  0  0  0  0  0  0  0
   10.5525   -0.9077    0.0000 C   0  0  0  0  0  0  0  0  0  0  0  0
   12.0172   -1.2311    0.0000 C   0  0  0  0  0  0  0  0  0  0  0  0
   13.0296   -0.1243    0.0000 C   0  0  0  0  0  0  0  0  0  0  0  0
   12.5773    1.3059    0.0000 C   0  0  0  0  0  0  0  0  0  0  0  0
   11.1126    1.6293    0.0000 C   0  0  0  0  0  0  0  0  0  0  0  0
   10.6603    3.0594    0.0000 N   0  0  0  0  0  0  0  0  0  0  0  0
   10.1002    0.5225    0.0000 C   0  0  0  0  0  0  0  0  0  0  0  0
    8.6354    0.8458    0.0000 C   0  0  0  0  0  0  0  0  0  0  0  0
    8.1831    2.2760    0.0000 O   0  0  0  0  0  0  0  0  0  0  0  0
   13.5897    2.4127    0.0000 S   0  0  0  0  0  0  0  0  0  0  0  0
   14.6965    1.4002    0.0000 O   0  0  0  0  0  0  0  0  0  0  0  0
   12.4829    3.4251    0.0000 O   0  0  0  0  0  0  0  0  0  0  0  0
   14.6021    3.5195    0.0000 O   0  0  0  0  0  0  0  0  0  0  0  0
   12.4695   -2.6613    0.0000 S   0  0  0  0  0  0  0  0  0  0  0  0
   13.8997   -2.2090    0.0000 O   0  0  0  0  0  0  0  0  0  0  0  0
   11.0393   -3.1136    0.0000 O   0  0  0  0  0  0  0  0  0  0  0  0
   12.9218   -4.0915    0.0000 O   0  0  0  0  0  0  0  0  0  0  0  0
   -0.7130    0.2492    0.0000 C   0  0  0  0  0  0  0  0  0  0  0  0
   -1.1654    1.6794    0.0000 C   0  0  0  0  0  0  0  0  0  0  0  0
   -2.6301    2.0027    0.0000 C   0  0  0  0  0  0  0  0  0  0  0  0
   -3.6425    0.8959    0.0000 C   0  0  0  0  0  0  0  0  0  0  0  0
   -5.1072    1.2193    0.0000 N   0  0  0  0  0  0  0  0  0  0  0  0
   -6.1196    0.1125    0.0000 N   0  0  0  0  0  0  0  0  0  0  0  0
   -7.5844    0.4359    0.0000 C   0  0  0  0  0  0  0  0  0  0  0  0
   -8.0367    1.8661    0.0000 C   0  0  0  0  0  0  0  0  0  0  0  0
   -9.5014    2.1895    0.0000 C   0  0  0  0  0  0  0  0  0  0  0  0
  -10.5138    1.0827    0.0000 C   0  0  0  0  0  0  0  0  0  0  0  0
  -11.9786    1.4061    0.0000 C   0  0  0  0  0  0  0  0  0  0  0  0
  -12.9910    0.2993    0.0000 C   0  0  0  0  0  0  0  0  0  0  0  0
  -12.5387   -1.1309    0.0000 C   0  0  0  0  0  0  0  0  0  0  0  0
  -11.0739   -1.4543    0.0000 C   0  0  0  0  0  0  0  0  0  0  0  0
  -10.6216   -2.8845    0.0000 N   0  0  0  0  0  0  0  0  0  0  0  0
  -10.0615   -0.3475    0.0000 C   0  0  0  0  0  0  0  0  0  0  0  0
   -8.5968   -0.6709    0.0000 C   0  0  0  0  0  0  0  0  0  0  0  0
   -8.1445   -2.1011    0.0000 O   0  0  0  0  0  0  0  0  0  0  0  0
  -13.5511   -2.2377    0.0000 S   0  0  0  0  0  0  0  0  0  0  0  0
  -14.6579   -1.2253    0.0000 O   0  0  0  0  0  0  0  0  0  0  0  0
  -12.4443   -3.2501    0.0000 O   0  0  0  0  0  0  0  0  0  0  0  0
  -14.5635   -3.3445    0.0000 O   0  0  0  0  0  0  0  0  0  0  0  0
  -12.4309    2.8363    0.0000 S   0  0  0  0  0  0  0  0  0  0  0  0
  -13.8610    2.3840    0.0000 O   0  0  0  0  0  0  0  0  0  0  0  0
  -11.0007    3.2886    0.0000 O   0  0  0  0  0  0  0  0  0  0  0  0
  -12.8832    4.2664    0.0000 O   0  0  0  0  0  0  0  0  0  0  0  0
   -3.1902   -0.5342    0.0000 C   0  0  0  0  0  0  0  0  0  0  0  0
   -4.2026   -1.6410    0.0000 C   0  0  0  0  0  0  0  0  0  0  0  0
   -1.7255   -0.8576    0.0000 C   0  0  0  0  0  0  0  0  0  0  0  0
  1  2  1  0
  2  3  2  0
  2  7  1  0
  3  4  1  0
  4  5  2  0
  4 30  1  0
  5  6  1  0
  6  7  2  0
  7  8  1  0
  8  9  2  0
  9 10  1  0
 10 11  2  0
 10 20  1  0
 11 12  1  0
 12 13  2  0
 13 14  1  0
 13 19  1  0
 14 15  2  0
 14 26  1  0
 15 16  1  0
 16 17  2  0
 16 22  1  0
 17 18  1  0
 17 19  1  0
 19 20  2  0
 20 21  1  0
 22 23  2  0
 22 24  2  0
 22 25  1  0
 26 27  2  0
 26 28  2  0
 26 29  1  0
 30 31  2  0
 30 58  1  0
 31 32  1  0
 32 33  2  0
 33 34  1  0
 33 56  1  0
 34 35  2  0
 35 36  1  0
 36 37  2  0
 36 46  1  0
 37 38  1  0
 38 39  2  0
 39 40  1  0
 39 45  1  0
 40 41  2  0
 40 52  1  0
 41 42  1  0
 42 43  2  0
 42 48  1  0
 43 44  1  0
 43 45  1  0
 45 46  2  0
 46 47  1  0
 48 49  2  0
 48 50  2  0
 48 51  1  0
 52 53  2  0
 52 54  2  0
 52 55  1  0
 56 57  1  0
 56 58  2  0
M  CHG  4  25  -1  29  -1  51  -1  55  -1
M  END
>  <s_m_entry_id>  (86) 
292

>  <s_m_entry_name>  (86) 
SIM_Broad_MProResults_ligprep.292

>  <Mol2_MolInfo_Name>  (86) 
9591

>  <Mol2_MolInfo_Type>  (86) 
SMALL

>  <Mol2_MolInfo_Charge>  (86) 
USER_CHARGES

>  <Mol2_Substructures>  (86) 
     1 UNK         1 GROUP             0       ****    0 ROOT    

>  <Name>  (86) 
9591

>  <s_m_Source_Path>  (86) 
/home/jgilaber/drug_learning/drug_learning/datasets/SARS2

>  <s_m_Source_File>  (86) 
SIM_Broad_MProResults_ligprep.sd

>  <i_m_Source_File_Index>  (86) 
292

>  <s_m_subgroup_title>  (86) 
SIM_Broad_MProResults_ligprep

>  <s_m_subgroupid>  (86) 
SIM_Broad_MProResults_ligprep

>  <b_m_subgroup_collapsed>  (86) 
0

$$$$
11833
     RDKit          2D

 60 65  0  0  1  0  0  0  0  0999 V2000
    2.1343   -4.2417    0.0000 C   0  0  0  0  0  0  0  0  0  0  0  0
    3.1471   -3.1353    0.0000 O   0  0  0  0  0  0  0  0  0  0  0  0
    2.6954   -1.7049    0.0000 C   0  0  0  0  0  0  0  0  0  0  0  0
    1.2308   -1.3809    0.0000 C   0  0  0  0  0  0  0  0  0  0  0  0
    0.7791    0.0494    0.0000 C   0  0  0  0  0  0  0  0  0  0  0  0
    1.7919    1.1558    0.0000 C   0  0  0  0  0  0  0  0  0  0  0  0
    3.2565    0.8318    0.0000 C   0  0  0  0  0  0  0  0  0  0  0  0
    3.7083   -0.5985    0.0000 C   0  0  0  0  0  0  0  0  0  0  0  0
    5.1729   -0.9225    0.0000 N   0  0  0  0  0  0  0  0  0  0  0  0
    6.1857    0.1839    0.0000 N   0  0  0  0  0  0  0  0  0  0  0  0
    7.6503   -0.1400    0.0000 C   0  0  0  0  0  0  0  0  0  0  0  0
    8.1020   -1.5704    0.0000 C   0  0  0  0  0  0  0  0  0  0  0  0
    9.5666   -1.8944    0.0000 C   0  0  0  0  0  0  0  0  0  0  0  0
   10.5795   -0.7880    0.0000 C   0  0  0  0  0  0  0  0  0  0  0  0
   12.0441   -1.1119    0.0000 C   0  0  0  0  0  0  0  0  0  0  0  0
   13.0570   -0.0055    0.0000 C   0  0  0  0  0  0  0  0  0  0  0  0
   12.6052    1.4248    0.0000 C   0  0  0  0  0  0  0  0  0  0  0  0
   11.1406    1.7488    0.0000 C   0  0  0  0  0  0  0  0  0  0  0  0
   10.6889    3.1791    0.0000 N   0  0  0  0  0  0  0  0  0  0  0  0
   10.1278    0.6424    0.0000 C   0  0  0  0  0  0  0  0  0  0  0  0
    8.6632    0.9663    0.0000 C   0  0  0  0  0  0  0  0  0  0  0  0
    8.2114    2.3967    0.0000 O   0  0  0  0  0  0  0  0  0  0  0  0
   13.6181    2.5312    0.0000 S   0  0  0  0  0  0  0  0  0  0  0  0
   14.7245    1.5184    0.0000 O   0  0  0  0  0  0  0  0  0  0  0  0
   12.5117    3.5441    0.0000 O   0  0  0  0  0  0  0  0  0  0  0  0
   14.6309    3.6376    0.0000 O   0  0  0  0  0  0  0  0  0  0  0  0
   12.4958   -2.5423    0.0000 S   0  0  0  0  0  0  0  0  0  0  0  0
   13.9262   -2.0906    0.0000 O   0  0  0  0  0  0  0  0  0  0  0  0
   11.0655   -2.9940    0.0000 O   0  0  0  0  0  0  0  0  0  0  0  0
   12.9476   -3.9727    0.0000 O   0  0  0  0  0  0  0  0  0  0  0  0
   -0.6855    0.3734    0.0000 C   0  0  0  0  0  0  0  0  0  0  0  0
   -1.1373    1.8037    0.0000 C   0  0  0  0  0  0  0  0  0  0  0  0
   -2.6019    2.1277    0.0000 C   0  0  0  0  0  0  0  0  0  0  0  0
   -3.6147    1.0213    0.0000 C   0  0  0  0  0  0  0  0  0  0  0  0
   -5.0793    1.3453    0.0000 N   0  0  0  0  0  0  0  0  0  0  0  0
   -6.0922    0.2389    0.0000 N   0  0  0  0  0  0  0  0  0  0  0  0
   -7.5568    0.5628    0.0000 C   0  0  0  0  0  0  0  0  0  0  0  0
   -8.0085    1.9932    0.0000 C   0  0  0  0  0  0  0  0  0  0  0  0
   -9.4731    2.3172    0.0000 C   0  0  0  0  0  0  0  0  0  0  0  0
  -10.4860    1.2108    0.0000 C   0  0  0  0  0  0  0  0  0  0  0  0
  -11.9506    1.5347    0.0000 C   0  0  0  0  0  0  0  0  0  0  0  0
  -12.9634    0.4283    0.0000 C   0  0  0  0  0  0  0  0  0  0  0  0
  -12.5117   -1.0020    0.0000 C   0  0  0  0  0  0  0  0  0  0  0  0
  -11.0471   -1.3260    0.0000 C   0  0  0  0  0  0  0  0  0  0  0  0
  -10.5954   -2.7563    0.0000 N   0  0  0  0  0  0  0  0  0  0  0  0
  -10.0342   -0.2196    0.0000 C   0  0  0  0  0  0  0  0  0  0  0  0
   -8.5697   -0.5436    0.0000 C   0  0  0  0  0  0  0  0  0  0  0  0
   -8.1179   -1.9739    0.0000 O   0  0  0  0  0  0  0  0  0  0  0  0
  -13.5246   -2.1084    0.0000 S   0  0  0  0  0  0  0  0  0  0  0  0
  -14.6310   -1.0956    0.0000 O   0  0  0  0  0  0  0  0  0  0  0  0
  -12.4182   -3.1213    0.0000 O   0  0  0  0  0  0  0  0  0  0  0  0
  -14.5374   -3.2148    0.0000 O   0  0  0  0  0  0  0  0  0  0  0  0
  -12.4023    2.9651    0.0000 S   0  0  0  0  0  0  0  0  0  0  0  0
  -13.8327    2.5134    0.0000 O   0  0  0  0  0  0  0  0  0  0  0  0
  -10.9720    3.4168    0.0000 O   0  0  0  0  0  0  0  0  0  0  0  0
  -12.8541    4.3955    0.0000 O   0  0  0  0  0  0  0  0  0  0  0  0
   -3.1630   -0.4091    0.0000 C   0  0  0  0  0  0  0  0  0  0  0  0
   -4.1759   -1.5155    0.0000 O   0  0  0  0  0  0  0  0  0  0  0  0
   -3.7241   -2.9458    0.0000 C   0  0  0  0  0  0  0  0  0  0  0  0
   -1.6984   -0.7330    0.0000 C   0  0  0  0  0  0  0  0  0  0  0  0
  1  2  1  0
  2  3  1  0
  3  4  2  0
  3  8  1  0
  4  5  1  0
  5  6  2  0
  5 31  1  0
  6  7  1  0
  7  8  2  0
  8  9  1  0
  9 10  2  0
 10 11  1  0
 11 12  2  0
 11 21  1  0
 12 13  1  0
 13 14  2  0
 14 15  1  0
 14 20  1  0
 15 16  2  0
 15 27  1  0
 16 17  1  0
 17 18  2  0
 17 23  1  0
 18 19  1  0
 18 20  1  0
 20 21  2  0
 21 22  1  0
 23 24  2  0
 23 25  2  0
 23 26  1  0
 27 28  2  0
 27 29  2  0
 27 30  1  0
 31 32  2  0
 31 60  1  0
 32 33  1  0
 33 34  2  0
 34 35  1  0
 34 57  1  0
 35 36  2  0
 36 37  1  0
 37 38  2  0
 37 47  1  0
 38 39  1  0
 39 40  2  0
 40 41  1  0
 40 46  1  0
 41 42  2  0
 41 53  1  0
 42 43  1  0
 43 44  2  0
 43 49  1  0
 44 45  1  0
 44 46  1  0
 46 47  2  0
 47 48  1  0
 49 50  2  0
 49 51  2  0
 49 52  1  0
 53 54  2  0
 53 55  2  0
 53 56  1  0
 57 58  1  0
 57 60  2  0
 58 59  1  0
M  CHG  4  26  -1  30  -1  52  -1  56  -1
M  END
>  <s_m_entry_id>  (87) 
139

>  <s_m_entry_name>  (87) 
SIM_Broad_MProResults_ligprep.139

>  <Mol2_MolInfo_Name>  (87) 
11833

>  <Mol2_MolInfo_Type>  (87) 
SMALL

>  <Mol2_MolInfo_Charge>  (87) 
USER_CHARGES

>  <Mol2_Substructures>  (87) 
     1 UNK         1 GROUP             0       ****    0 ROOT    

>  <Name>  (87) 
11833

>  <s_m_Source_Path>  (87) 
/home/jgilaber/drug_learning/drug_learning/datasets/SARS2

>  <s_m_Source_File>  (87) 
SIM_Broad_MProResults_ligprep.sd

>  <i_m_Source_File_Index>  (87) 
139

>  <s_m_subgroup_title>  (87) 
SIM_Broad_MProResults_ligprep

>  <s_m_subgroupid>  (87) 
SIM_Broad_MProResults_ligprep

>  <b_m_subgroup_collapsed>  (87) 
0

$$$$
8471
     RDKit          2D

  8  7  0  0  1  0  0  0  0  0999 V2000
   -2.5981    0.5625    0.0000 C   0  0  0  0  0  0  0  0  0  0  0  0
   -1.2990    1.3125    0.0000 C   0  0  0  0  0  0  0  0  0  0  0  0
    0.0000    0.5625    0.0000 N   0  0  0  0  0  0  0  0  0  0  0  0
    1.2990    1.3125    0.0000 C   0  0  0  0  0  0  0  0  0  0  0  0
    2.5981    0.5625    0.0000 C   0  0  0  0  0  0  0  0  0  0  0  0
    0.0000   -0.9375    0.0000 C   0  0  0  0  0  0  0  0  0  0  0  0
   -1.2990   -1.6875    0.0000 S   0  0  0  0  0  0  0  0  0  0  0  0
    1.2990   -1.6875    0.0000 S   0  0  0  0  0  0  0  0  0  0  0  0
  1  2  1  0
  2  3  1  0
  3  4  1  0
  3  6  1  0
  4  5  1  0
  6  7  2  0
  6  8  1  0
M  END
>  <s_m_entry_id>  (88) 
231

>  <s_m_entry_name>  (88) 
SIM_Broad_MProResults_ligprep.231

>  <Mol2_MolInfo_Name>  (88) 
8471

>  <Mol2_MolInfo_Type>  (88) 
SMALL

>  <Mol2_MolInfo_Charge>  (88) 
USER_CHARGES

>  <Mol2_Substructures>  (88) 
     1 ****        1 GROUP             0       ****    0 ROOT    

>  <Name>  (88) 
8471

>  <s_m_Source_Path>  (88) 
/home/jgilaber/drug_learning/drug_learning/datasets/SARS2

>  <s_m_Source_File>  (88) 
SIM_Broad_MProResults_ligprep.sd

>  <i_m_Source_File_Index>  (88) 
231

>  <s_m_subgroup_title>  (88) 
SIM_Broad_MProResults_ligprep

>  <s_m_subgroupid>  (88) 
SIM_Broad_MProResults_ligprep

>  <b_m_subgroup_collapsed>  (88) 
0

$$$$
9977
     RDKit          2D

 25 31  0  0  1  0  0  0  0  0999 V2000
    3.1453   -3.2884    0.0000 O   0  0  0  0  0  0  0  0  0  0  0  0
    1.8621   -2.5116    0.0000 C   0  0  0  0  0  0  0  0  0  0  0  0
    0.5478   -3.2345    0.0000 C   0  0  0  0  0  0  0  0  0  0  0  0
   -0.7354   -2.4577    0.0000 C   0  0  0  0  0  0  0  0  0  0  0  0
   -1.9273   -3.3684    0.0000 O   0  0  0  0  0  0  0  0  0  0  0  0
   -3.3825   -3.0044    0.0000 C   0  0  0  0  0  0  0  0  0  0  0  0
   -4.0051   -1.6398    0.0000 C   0  0  0  0  0  0  0  0  0  0  0  0
   -3.3264   -0.3021    0.0000 C   0  0  0  0  0  0  0  0  0  0  0  0
   -4.3237    0.8184    0.0000 C   0  0  0  0  0  0  0  0  0  0  0  0
   -3.8519    2.2423    0.0000 N   0  0  0  0  0  0  0  0  0  0  0  0
   -3.1030    3.5420    0.0000 C   0  0  0  0  0  0  0  0  0  0  0  0
   -1.6355    3.2313    0.0000 C   0  0  0  0  0  0  0  0  0  0  0  0
    0.9522    1.2253    0.0000 C   0  0  0  0  0  0  0  0  0  0  0  0
   -2.3829    2.5457    0.0000 C   0  0  0  0  0  0  0  0  0  0  0  0
   -1.3857    1.4252    0.0000 C   0  0  0  0  0  0  0  0  0  0  0  0
   -1.8574    0.0013    0.0000 C   0  0  0  0  0  0  0  0  0  0  0  0
   -0.7043   -0.9580    0.0000 C   0  0  0  0  0  0  0  0  0  0  0  0
    0.6100   -0.2351    0.0000 C   0  0  0  0  0  0  0  0  0  0  0  0
    1.8932   -1.0119    0.0000 N   0  0  0  0  0  0  0  0  0  0  0  0
    3.0285   -0.0316    0.0000 C   0  0  0  0  0  0  0  0  0  0  0  0
    4.5167   -0.2192    0.0000 C   0  0  0  0  0  0  0  0  0  0  0  0
    5.4233    0.9757    0.0000 C   0  0  0  0  0  0  0  0  0  0  0  0
    4.8418    2.3584    0.0000 C   0  0  0  0  0  0  0  0  0  0  0  0
    3.3536    2.5461    0.0000 C   0  0  0  0  0  0  0  0  0  0  0  0
    2.4469    1.3511    0.0000 C   0  0  0  0  0  0  0  0  0  0  0  0
  1  2  2  0
  2  3  1  0
  2 19  1  0
  3  4  1  0
  4  5  1  0
  4 17  1  0
  5  6  1  0
  6  7  1  0
  7  8  2  0
  8  9  1  0
  8 16  1  0
  9 10  1  0
 10 11  1  0
 10 14  1  0
 11 12  1  0
 12 13  1  0
 13 14  1  0
 13 18  1  0
 13 25  1  0
 14 15  1  0
 15 16  1  0
 16 17  1  0
 17 18  1  0
 18 19  1  0
 19 20  1  0
 20 21  2  0
 20 25  1  0
 21 22  1  0
 22 23  2  0
 23 24  1  0
 24 25  2  0
M  CHG  1  10   1
M  END
>  <s_m_entry_id>  (89) 
33

>  <s_m_entry_name>  (89) 
SIM_Broad_MProResults_ligprep.33

>  <Mol2_MolInfo_Name>  (89) 
9977

>  <Mol2_MolInfo_Type>  (89) 
SMALL

>  <Mol2_MolInfo_Charge>  (89) 
USER_CHARGES

>  <Mol2_Substructures>  (89) 
     1 UNK         1 GROUP             0       ****    0 ROOT    

>  <Name>  (89) 
9977

>  <s_m_Source_Path>  (89) 
/home/jgilaber/drug_learning/drug_learning/datasets/SARS2

>  <s_m_Source_File>  (89) 
SIM_Broad_MProResults_ligprep.sd

>  <i_m_Source_File_Index>  (89) 
33

>  <s_m_subgroup_title>  (89) 
SIM_Broad_MProResults_ligprep

>  <s_m_subgroupid>  (89) 
SIM_Broad_MProResults_ligprep

>  <b_m_subgroup_collapsed>  (89) 
0

$$$$
11127
     RDKit          2D

 26 26  0  0  1  0  0  0  0  0999 V2000
    8.1087    3.0930    0.0000 C   0  0  0  0  0  0  0  0  0  0  0  0
    7.3340    1.8086    0.0000 C   0  0  0  0  0  0  0  0  0  0  0  0
    5.8343    1.8373    0.0000 C   0  0  0  0  0  0  0  0  0  0  0  0
    5.0596    0.5528    0.0000 C   0  0  0  0  0  0  0  0  0  0  0  0
    3.5599    0.5815    0.0000 C   0  0  0  0  0  0  0  0  0  0  0  0
    2.7851   -0.7029    0.0000 N   0  0  0  0  0  0  0  0  0  0  0  0
    1.2854   -0.6742    0.0000 C   0  0  0  0  0  0  0  0  0  0  0  0
    0.5604    0.6389    0.0000 O   0  0  0  0  0  0  0  0  0  0  0  0
    0.5107   -1.9587    0.0000 C   0  0  0  0  0  0  0  0  0  0  0  0
    1.2357   -3.2718    0.0000 C   0  0  0  0  0  0  0  0  0  0  0  0
    2.7354   -3.3005    0.0000 C   0  0  0  0  0  0  0  0  0  0  0  0
    3.4604   -4.6137    0.0000 C   0  0  0  0  0  0  0  0  0  0  0  0
    3.5101   -2.0161    0.0000 C   0  0  0  0  0  0  0  0  0  0  0  0
   -0.9890   -1.9300    0.0000 N   0  0  0  0  0  0  0  0  0  0  0  0
   -1.7140   -0.6168    0.0000 C   0  0  0  0  0  0  0  0  0  0  0  0
   -0.9393    0.6676    0.0000 O   0  0  0  0  0  0  0  0  0  0  0  0
   -3.2138   -0.5881    0.0000 O   0  0  0  0  0  0  0  0  0  0  0  0
   -3.9388    0.7250    0.0000 C   0  0  0  0  0  0  0  0  0  0  0  0
   -5.4385    0.7537    0.0000 C   0  0  0  0  0  0  0  0  0  0  0  0
   -6.2132   -0.5308    0.0000 C   0  0  0  0  0  0  0  0  0  0  0  0
   -7.7129   -0.5021    0.0000 C   0  0  0  0  0  0  0  0  0  0  0  0
   -8.4380    0.8111    0.0000 C   0  0  0  0  0  0  0  0  0  0  0  0
   -7.6632    2.0955    0.0000 C   0  0  0  0  0  0  0  0  0  0  0  0
   -6.1635    2.0669    0.0000 C   0  0  0  0  0  0  0  0  0  0  0  0
    2.8348    1.8947    0.0000 C   0  0  0  0  0  0  0  0  0  0  0  0
    3.6096    3.1791    0.0000 O   0  0  0  0  0  0  0  0  0  0  0  0
  1  2  1  0
  2  3  1  0
  3  4  1  0
  4  5  1  0
  5  6  1  0
  5 25  1  0
  6  7  1  0
  7  8  2  0
  7  9  1  0
  9 10  1  0
  9 14  1  0
 10 11  1  0
 11 12  1  0
 11 13  1  0
 14 15  1  0
 15 16  2  0
 15 17  1  0
 17 18  1  0
 18 19  1  0
 19 20  2  0
 19 24  1  0
 20 21  1  0
 21 22  2  0
 22 23  1  0
 23 24  2  0
 25 26  2  0
M  END
>  <s_m_entry_id>  (90) 
103

>  <s_m_entry_name>  (90) 
SIM_Broad_MProResults_ligprep.103

>  <Mol2_MolInfo_Name>  (90) 
11127

>  <Mol2_MolInfo_Type>  (90) 
SMALL

>  <Mol2_MolInfo_Charge>  (90) 
USER_CHARGES

>  <Mol2_Substructures>  (90) 
     1 UNK         1 GROUP             0       ****    0 ROOT    

>  <Name>  (90) 
11127

>  <s_m_Source_Path>  (90) 
/home/jgilaber/drug_learning/drug_learning/datasets/SARS2

>  <s_m_Source_File>  (90) 
SIM_Broad_MProResults_ligprep.sd

>  <i_m_Source_File_Index>  (90) 
103

>  <s_m_subgroup_title>  (90) 
SIM_Broad_MProResults_ligprep

>  <s_m_subgroupid>  (90) 
SIM_Broad_MProResults_ligprep

>  <b_m_subgroup_collapsed>  (90) 
0

$$$$
8223
     RDKit          2D

 30 33  0  0  1  0  0  0  0  0999 V2000
   -2.2729   -4.3764    0.0000 C   0  0  0  0  0  0  0  0  0  0  0  0
   -1.5699   -3.0514    0.0000 N   0  0  0  0  0  0  0  0  0  0  0  0
   -0.0709   -2.9977    0.0000 C   0  0  0  0  0  0  0  0  0  0  0  0
    0.6322   -1.6726    0.0000 C   0  0  0  0  0  0  0  0  0  0  0  0
    2.1312   -1.6189    0.0000 C   0  0  0  0  0  0  0  0  0  0  0  0
    2.8342   -0.2939    0.0000 N   0  0  0  0  0  0  0  0  0  0  0  0
    4.3331   -0.3523    0.0000 C   0  0  0  0  0  0  0  0  0  0  0  0
    4.8262   -1.7689    0.0000 C   0  0  0  0  0  0  0  0  0  0  0  0
    6.2996   -2.0502    0.0000 C   0  0  0  0  0  0  0  0  0  0  0  0
    7.2799   -0.9148    0.0000 C   0  0  0  0  0  0  0  0  0  0  0  0
    6.7867    0.5018    0.0000 C   0  0  0  0  0  0  0  0  0  0  0  0
    5.3133    0.7831    0.0000 C   0  0  0  0  0  0  0  0  0  0  0  0
    5.0368    2.2574    0.0000 C   0  0  0  0  0  0  0  0  0  0  0  0
    3.7117    2.9604    0.0000 C   0  0  0  0  0  0  0  0  0  0  0  0
    2.3359    2.3627    0.0000 C   0  0  0  0  0  0  0  0  0  0  0  0
    1.2770    3.4251    0.0000 C   0  0  0  0  0  0  0  0  0  0  0  0
   -0.1725    3.0392    0.0000 C   0  0  0  0  0  0  0  0  0  0  0  0
   -0.5631    1.5909    0.0000 C   0  0  0  0  0  0  0  0  0  0  0  0
    0.4959    0.5285    0.0000 C   0  0  0  0  0  0  0  0  0  0  0  0
    1.9454    0.9145    0.0000 C   0  0  0  0  0  0  0  0  0  0  0  0
   -2.3659   -1.7800    0.0000 C   0  0  0  0  0  0  0  0  0  0  0  0
   -3.8650   -1.8337    0.0000 C   0  0  0  0  0  0  0  0  0  0  0  0
   -4.5680   -3.1587    0.0000 O   0  0  0  0  0  0  0  0  0  0  0  0
   -4.6610   -0.5623    0.0000 C   0  0  0  0  0  0  0  0  0  0  0  0
   -3.9580    0.7627    0.0000 C   0  0  0  0  0  0  0  0  0  0  0  0
   -4.7540    2.0341    0.0000 C   0  0  0  0  0  0  0  0  0  0  0  0
   -6.2530    1.9804    0.0000 C   0  0  0  0  0  0  0  0  0  0  0  0
   -7.0490    3.2517    0.0000 Cl  0  0  0  0  0  0  0  0  0  0  0  0
   -6.9560    0.6553    0.0000 C   0  0  0  0  0  0  0  0  0  0  0  0
   -6.1600   -0.6160    0.0000 C   0  0  0  0  0  0  0  0  0  0  0  0
  1  2  1  0
  2  3  1  0
  2 21  1  0
  3  4  1  0
  4  5  1  0
  5  6  1  0
  6  7  1  0
  6 20  1  0
  7  8  2  0
  7 12  1  0
  8  9  1  0
  9 10  2  0
 10 11  1  0
 11 12  2  0
 12 13  1  0
 13 14  1  0
 14 15  1  0
 15 16  1  0
 15 20  2  0
 16 17  2  0
 17 18  1  0
 18 19  2  0
 19 20  1  0
 21 22  1  0
 22 23  2  0
 22 24  1  0
 24 25  2  0
 24 30  1  0
 25 26  1  0
 26 27  2  0
 27 28  1  0
 27 29  1  0
 29 30  2  0
M  END
>  <s_m_entry_id>  (91) 
224

>  <s_m_entry_name>  (91) 
SIM_Broad_MProResults_ligprep.224

>  <Mol2_MolInfo_Name>  (91) 
8223

>  <Mol2_MolInfo_Type>  (91) 
SMALL

>  <Mol2_MolInfo_Charge>  (91) 
USER_CHARGES

>  <Mol2_Substructures>  (91) 
     1 ****        1 GROUP             0       ****    0 ROOT    

>  <Name>  (91) 
8223

>  <s_m_Source_Path>  (91) 
/home/jgilaber/drug_learning/drug_learning/datasets/SARS2

>  <s_m_Source_File>  (91) 
SIM_Broad_MProResults_ligprep.sd

>  <i_m_Source_File_Index>  (91) 
224

>  <s_m_subgroup_title>  (91) 
SIM_Broad_MProResults_ligprep

>  <s_m_subgroupid>  (91) 
SIM_Broad_MProResults_ligprep

>  <b_m_subgroup_collapsed>  (91) 
0

$$$$
12609
     RDKit          2D

  7  6  0  0  1  0  0  0  0  0999 V2000
   -2.2837   -0.8417    0.0000 O   0  0  0  0  0  0  0  0  0  0  0  0
   -1.1803    0.1745    0.0000 C   0  0  0  0  0  0  0  0  0  0  0  0
   -1.5086    1.6381    0.0000 O   0  0  0  0  0  0  0  0  0  0  0  0
    0.2514   -0.2730    0.0000 C   0  0  0  0  0  0  0  0  0  0  0  0
    0.5797   -1.7367    0.0000 O   0  0  0  0  0  0  0  0  0  0  0  0
    1.3548    0.7431    0.0000 C   0  0  0  0  0  0  0  0  0  0  0  0
    2.7865    0.2956    0.0000 Br  0  0  0  0  0  0  0  0  0  0  0  0
  1  2  1  0
  2  3  2  0
  2  4  1  0
  4  5  2  0
  4  6  1  0
  6  7  1  0
M  CHG  1   1  -1
M  END
>  <s_m_entry_id>  (92) 
164

>  <s_m_entry_name>  (92) 
SIM_Broad_MProResults_ligprep.164

>  <Mol2_MolInfo_Name>  (92) 
12609

>  <Mol2_MolInfo_Type>  (92) 
SMALL

>  <Mol2_MolInfo_Charge>  (92) 
USER_CHARGES

>  <Mol2_Substructures>  (92) 
     1 UNK         1 GROUP             0       ****    0 ROOT    

>  <Name>  (92) 
12609

>  <s_m_Source_Path>  (92) 
/home/jgilaber/drug_learning/drug_learning/datasets/SARS2

>  <s_m_Source_File>  (92) 
SIM_Broad_MProResults_ligprep.sd

>  <i_m_Source_File_Index>  (92) 
164

>  <s_m_subgroup_title>  (92) 
SIM_Broad_MProResults_ligprep

>  <s_m_subgroupid>  (92) 
SIM_Broad_MProResults_ligprep

>  <b_m_subgroup_collapsed>  (92) 
0

$$$$
6035
     RDKit          2D

 13 14  0  0  1  0  0  0  0  0999 V2000
   -3.6459    0.4096    0.0000 C   0  0  0  0  0  0  0  0  0  0  0  0
   -2.1919    0.0407    0.0000 C   0  0  0  0  0  0  0  0  0  0  0  0
   -1.7844   -1.4029    0.0000 C   0  0  0  0  0  0  0  0  0  0  0  0
   -0.3305   -1.7718    0.0000 C   0  0  0  0  0  0  0  0  0  0  0  0
    0.0770   -3.2154    0.0000 O   0  0  0  0  0  0  0  0  0  0  0  0
    0.7159   -0.6971    0.0000 C   0  0  0  0  0  0  0  0  0  0  0  0
    2.1699   -1.0660    0.0000 C   0  0  0  0  0  0  0  0  0  0  0  0
    3.2163    0.0087    0.0000 C   0  0  0  0  0  0  0  0  0  0  0  0
    2.8088    1.4523    0.0000 C   0  0  0  0  0  0  0  0  0  0  0  0
    1.3549    1.8212    0.0000 C   0  0  0  0  0  0  0  0  0  0  0  0
    0.3084    0.7465    0.0000 C   0  0  0  0  0  0  0  0  0  0  0  0
   -1.1455    1.1154    0.0000 C   0  0  0  0  0  0  0  0  0  0  0  0
   -1.5530    2.5590    0.0000 O   0  0  0  0  0  0  0  0  0  0  0  0
  1  2  1  0
  2  3  2  0
  2 12  1  0
  3  4  1  0
  4  5  2  0
  4  6  1  0
  6  7  1  0
  6 11  2  0
  7  8  2  0
  8  9  1  0
  9 10  2  0
 10 11  1  0
 11 12  1  0
 12 13  2  0
M  END
>  <s_m_entry_id>  (93) 
206

>  <s_m_entry_name>  (93) 
SIM_Broad_MProResults_ligprep.206

>  <Mol2_MolInfo_Name>  (93) 
6035

>  <Mol2_MolInfo_Type>  (93) 
SMALL

>  <Mol2_MolInfo_Charge>  (93) 
USER_CHARGES

>  <Mol2_Substructures>  (93) 
     1 ****        1 GROUP             0       ****    0 ROOT    

>  <Name>  (93) 
6035

>  <s_m_Source_Path>  (93) 
/home/jgilaber/drug_learning/drug_learning/datasets/SARS2

>  <s_m_Source_File>  (93) 
SIM_Broad_MProResults_ligprep.sd

>  <i_m_Source_File_Index>  (93) 
206

>  <s_m_subgroup_title>  (93) 
SIM_Broad_MProResults_ligprep

>  <s_m_subgroupid>  (93) 
SIM_Broad_MProResults_ligprep

>  <b_m_subgroup_collapsed>  (93) 
0

$$$$
10385
     RDKit          2D

 17 18  0  0  1  0  0  0  0  0999 V2000
   -2.2274   -3.1044    0.0000 C   0  0  0  0  0  0  0  0  0  0  0  0
   -1.4044   -1.8503    0.0000 N   0  0  0  0  0  0  0  0  0  0  0  0
    0.0939   -1.7790    0.0000 C   0  0  0  0  0  0  0  0  0  0  0  0
    1.0323   -2.9493    0.0000 O   0  0  0  0  0  0  0  0  0  0  0  0
    0.4891   -0.3320    0.0000 C   0  0  0  0  0  0  0  0  0  0  0  0
   -0.7649    0.4910    0.0000 S   0  0  0  0  0  0  0  0  0  0  0  0
   -1.9352   -0.4474    0.0000 C   0  0  0  0  0  0  0  0  0  0  0  0
   -3.3822   -0.0522    0.0000 C   0  0  0  0  0  0  0  0  0  0  0  0
   -3.7634    1.3985    0.0000 C   0  0  0  0  0  0  0  0  0  0  0  0
   -2.6977    2.4541    0.0000 O   0  0  0  0  0  0  0  0  0  0  0  0
   -5.2104    1.7937    0.0000 O   0  0  0  0  0  0  0  0  0  0  0  0
    1.8921    0.1988    0.0000 N   0  0  0  0  0  0  0  0  0  0  0  0
    3.0532   -0.7508    0.0000 C   0  0  0  0  0  0  0  0  0  0  0  0
    4.4562   -0.2200    0.0000 C   0  0  0  0  0  0  0  0  0  0  0  0
    4.6980    1.2604    0.0000 C   0  0  0  0  0  0  0  0  0  0  0  0
    3.5368    2.2100    0.0000 C   0  0  0  0  0  0  0  0  0  0  0  0
    2.1339    1.6792    0.0000 C   0  0  0  0  0  0  0  0  0  0  0  0
  1  2  1  0
  2  3  1  0
  2  7  1  0
  3  4  2  0
  3  5  1  0
  5  6  1  0
  5 12  1  0
  6  7  1  0
  7  8  2  0
  8  9  1  0
  9 10  2  0
  9 11  1  0
 12 13  1  0
 12 17  1  0
 13 14  1  0
 14 15  1  0
 15 16  1  0
 16 17  1  0
M  CHG  2  11  -1  12   1
M  END
>  <s_m_entry_id>  (94) 
60

>  <s_m_entry_name>  (94) 
SIM_Broad_MProResults_ligprep.60

>  <Mol2_MolInfo_Name>  (94) 
10385

>  <Mol2_MolInfo_Type>  (94) 
SMALL

>  <Mol2_MolInfo_Charge>  (94) 
USER_CHARGES

>  <Mol2_Substructures>  (94) 
     1 UNK         1 GROUP             0       ****    0 ROOT    

>  <Name>  (94) 
10385

>  <s_m_Source_Path>  (94) 
/home/jgilaber/drug_learning/drug_learning/datasets/SARS2

>  <s_m_Source_File>  (94) 
SIM_Broad_MProResults_ligprep.sd

>  <i_m_Source_File_Index>  (94) 
60

>  <s_m_subgroup_title>  (94) 
SIM_Broad_MProResults_ligprep

>  <s_m_subgroupid>  (94) 
SIM_Broad_MProResults_ligprep

>  <b_m_subgroup_collapsed>  (94) 
0

$$$$
5723
     RDKit          2D

 20 22  0  0  1  0  0  0  0  0999 V2000
   -3.2770    3.5836    0.0000 N   0  0  0  0  0  0  0  0  0  0  0  0
   -2.4317    2.3445    0.0000 C   0  0  0  0  0  0  0  0  0  0  0  0
   -3.0821    0.9929    0.0000 C   0  0  0  0  0  0  0  0  0  0  0  0
   -4.5579    0.7246    0.0000 C   0  0  0  0  0  0  0  0  0  0  0  0
   -4.7588   -0.7619    0.0000 N   0  0  0  0  0  0  0  0  0  0  0  0
   -3.4071   -1.4123    0.0000 C   0  0  0  0  0  0  0  0  0  0  0  0
   -3.1388   -2.8881    0.0000 S   0  0  0  0  0  0  0  0  0  0  0  0
   -2.3709   -0.3278    0.0000 N   0  0  0  0  0  0  0  0  0  0  0  0
   -0.8844   -0.5287    0.0000 C   0  0  0  0  0  0  0  0  0  0  0  0
   -0.3151   -1.9165    0.0000 C   0  0  0  0  0  0  0  0  0  0  0  0
    1.1714   -2.1174    0.0000 C   0  0  0  0  0  0  0  0  0  0  0  0
    2.0886   -0.9305    0.0000 C   0  0  0  0  0  0  0  0  0  0  0  0
    3.5751   -1.1314    0.0000 C   0  0  0  0  0  0  0  0  0  0  0  0
    4.1443   -2.5192    0.0000 F   0  0  0  0  0  0  0  0  0  0  0  0
    4.4923    0.0555    0.0000 C   0  0  0  0  0  0  0  0  0  0  0  0
    3.9230    1.4433    0.0000 C   0  0  0  0  0  0  0  0  0  0  0  0
    4.8403    2.6301    0.0000 F   0  0  0  0  0  0  0  0  0  0  0  0
    2.4366    1.6442    0.0000 C   0  0  0  0  0  0  0  0  0  0  0  0
    1.5193    0.4573    0.0000 C   0  0  0  0  0  0  0  0  0  0  0  0
    0.0328    0.6582    0.0000 C   0  0  0  0  0  0  0  0  0  0  0  0
  1  2  1  0
  2  3  1  0
  3  4  2  0
  3  8  1  0
  4  5  1  0
  5  6  1  0
  6  7  2  0
  6  8  1  0
  8  9  1  0
  9 10  1  0
  9 20  1  0
 10 11  1  0
 11 12  1  0
 12 13  2  0
 12 19  1  0
 13 14  1  0
 13 15  1  0
 15 16  2  0
 16 17  1  0
 16 18  1  0
 18 19  2  0
 19 20  1  0
M  END
>  <s_m_entry_id>  (95) 
205

>  <s_m_entry_name>  (95) 
SIM_Broad_MProResults_ligprep.205

>  <Mol2_MolInfo_Name>  (95) 
5723

>  <Mol2_MolInfo_Type>  (95) 
SMALL

>  <Mol2_MolInfo_Charge>  (95) 
USER_CHARGES

>  <Mol2_Substructures>  (95) 
     1 ****        1 GROUP             0       ****    0 ROOT    

>  <Name>  (95) 
5723

>  <s_m_Source_Path>  (95) 
/home/jgilaber/drug_learning/drug_learning/datasets/SARS2

>  <s_m_Source_File>  (95) 
SIM_Broad_MProResults_ligprep.sd

>  <i_m_Source_File_Index>  (95) 
205

>  <s_m_subgroup_title>  (95) 
SIM_Broad_MProResults_ligprep

>  <s_m_subgroupid>  (95) 
SIM_Broad_MProResults_ligprep

>  <b_m_subgroup_collapsed>  (95) 
0

$$$$
9593
     RDKit          2D

 19 21  0  0  1  0  0  0  0  0999 V2000
   -7.1421   -0.2825    0.0000 C   0  0  0  0  0  0  0  0  0  0  0  0
   -5.7554    0.2893    0.0000 C   0  0  0  0  0  0  0  0  0  0  0  0
   -4.5668   -0.6258    0.0000 O   0  0  0  0  0  0  0  0  0  0  0  0
   -3.1801   -0.0540    0.0000 C   0  0  0  0  0  0  0  0  0  0  0  0
   -2.9819    1.4328    0.0000 C   0  0  0  0  0  0  0  0  0  0  0  0
   -1.5951    2.0046    0.0000 C   0  0  0  0  0  0  0  0  0  0  0  0
   -0.4066    1.0896    0.0000 C   0  0  0  0  0  0  0  0  0  0  0  0
    0.9802    1.6614    0.0000 N   0  0  0  0  0  0  0  0  0  0  0  0
    2.1687    0.7463    0.0000 C   0  0  0  0  0  0  0  0  0  0  0  0
    3.5555    1.3181    0.0000 C   0  0  0  0  0  0  0  0  0  0  0  0
    4.7440    0.4031    0.0000 C   0  0  0  0  0  0  0  0  0  0  0  0
    6.1308    0.9748    0.0000 N   0  0  0  0  0  0  0  0  0  0  0  0
    4.5458   -1.0838    0.0000 C   0  0  0  0  0  0  0  0  0  0  0  0
    3.1591   -1.6556    0.0000 C   0  0  0  0  0  0  0  0  0  0  0  0
    1.9705   -0.7405    0.0000 C   0  0  0  0  0  0  0  0  0  0  0  0
    0.5838   -1.3123    0.0000 C   0  0  0  0  0  0  0  0  0  0  0  0
    0.3856   -2.7992    0.0000 N   0  0  0  0  0  0  0  0  0  0  0  0
   -0.6048   -0.3973    0.0000 C   0  0  0  0  0  0  0  0  0  0  0  0
   -1.9915   -0.9691    0.0000 C   0  0  0  0  0  0  0  0  0  0  0  0
  1  2  1  0
  2  3  1  0
  3  4  1  0
  4  5  2  0
  4 19  1  0
  5  6  1  0
  6  7  2  0
  7  8  1  0
  7 18  1  0
  8  9  1  0
  9 10  2  0
  9 15  1  0
 10 11  1  0
 11 12  1  0
 11 13  2  0
 13 14  1  0
 14 15  2  0
 15 16  1  0
 16 17  1  0
 16 18  1  0
 18 19  2  0
M  END
>  <s_m_entry_id>  (96) 
293

>  <s_m_entry_name>  (96) 
SIM_Broad_MProResults_ligprep.293

>  <Mol2_MolInfo_Name>  (96) 
9593

>  <Mol2_MolInfo_Type>  (96) 
SMALL

>  <Mol2_MolInfo_Charge>  (96) 
USER_CHARGES

>  <Mol2_Substructures>  (96) 
     1 UNK         1 GROUP             0       ****    0 ROOT    

>  <Name>  (96) 
9593

>  <s_m_Source_Path>  (96) 
/home/jgilaber/drug_learning/drug_learning/datasets/SARS2

>  <s_m_Source_File>  (96) 
SIM_Broad_MProResults_ligprep.sd

>  <i_m_Source_File_Index>  (96) 
293

>  <s_m_subgroup_title>  (96) 
SIM_Broad_MProResults_ligprep

>  <s_m_subgroupid>  (96) 
SIM_Broad_MProResults_ligprep

>  <b_m_subgroup_collapsed>  (96) 
0

$$$$
11342
     RDKit          2D

 14 14  0  0  1  0  0  0  0  0999 V2000
   -5.5772    0.7899    0.0000 C   0  0  0  0  0  0  0  0  0  0  0  0
   -4.1168    1.1321    0.0000 O   0  0  0  0  0  0  0  0  0  0  0  0
   -3.0902    0.0384    0.0000 C   0  0  0  0  0  0  0  0  0  0  0  0
   -3.5241   -1.3975    0.0000 O   0  0  0  0  0  0  0  0  0  0  0  0
   -1.6298    0.3806    0.0000 C   0  0  0  0  0  0  0  0  0  0  0  0
   -0.6032   -0.7131    0.0000 C   0  0  0  0  0  0  0  0  0  0  0  0
    0.8572   -0.3710    0.0000 C   0  0  0  0  0  0  0  0  0  0  0  0
    1.2911    1.0649    0.0000 C   0  0  0  0  0  0  0  0  0  0  0  0
    2.7516    1.4071    0.0000 C   0  0  0  0  0  0  0  0  0  0  0  0
    3.1855    2.8429    0.0000 O   0  0  0  0  0  0  0  0  0  0  0  0
    3.7781    0.3134    0.0000 C   0  0  0  0  0  0  0  0  0  0  0  0
    3.3442   -1.1225    0.0000 C   0  0  0  0  0  0  0  0  0  0  0  0
    1.8838   -1.4647    0.0000 C   0  0  0  0  0  0  0  0  0  0  0  0
    1.4499   -2.9005    0.0000 O   0  0  0  0  0  0  0  0  0  0  0  0
  1  2  1  0
  2  3  1  0
  3  4  2  0
  3  5  1  0
  5  6  2  0
  6  7  1  0
  7  8  2  0
  7 13  1  0
  8  9  1  0
  9 10  1  0
  9 11  2  0
 11 12  1  0
 12 13  2  0
 13 14  1  0
M  END
>  <s_m_entry_id>  (97) 
116

>  <s_m_entry_name>  (97) 
SIM_Broad_MProResults_ligprep.116

>  <Mol2_MolInfo_Name>  (97) 
11342

>  <Mol2_MolInfo_Type>  (97) 
SMALL

>  <Mol2_MolInfo_Charge>  (97) 
USER_CHARGES

>  <Mol2_Substructures>  (97) 
     1 UNK         1 GROUP             0       ****    0 ROOT    

>  <Name>  (97) 
11342

>  <s_m_Source_Path>  (97) 
/home/jgilaber/drug_learning/drug_learning/datasets/SARS2

>  <s_m_Source_File>  (97) 
SIM_Broad_MProResults_ligprep.sd

>  <i_m_Source_File_Index>  (97) 
116

>  <s_m_subgroup_title>  (97) 
SIM_Broad_MProResults_ligprep

>  <s_m_subgroupid>  (97) 
SIM_Broad_MProResults_ligprep

>  <b_m_subgroup_collapsed>  (97) 
0

$$$$
11911
     RDKit          2D

 34 34  0  0  1  0  0  0  0  0999 V2000
    5.0378    5.9105    0.0000 C   0  0  0  0  0  0  0  0  0  0  0  0
    3.9469    4.8810    0.0000 C   0  0  0  0  0  0  0  0  0  0  0  0
    2.5099    5.3109    0.0000 C   0  0  0  0  0  0  0  0  0  0  0  0
    4.2931    3.4215    0.0000 C   0  0  0  0  0  0  0  0  0  0  0  0
    3.2023    2.3919    0.0000 C   0  0  0  0  0  0  0  0  0  0  0  0
    3.5485    0.9324    0.0000 N   0  0  0  0  0  0  0  0  0  0  0  0
    2.4576   -0.0972    0.0000 C   0  0  0  0  0  0  0  0  0  0  0  0
    1.0205    0.3328    0.0000 O   0  0  0  0  0  0  0  0  0  0  0  0
    2.8038   -1.5567    0.0000 C   0  0  0  0  0  0  0  0  0  0  0  0
    4.2409   -1.9866    0.0000 C   0  0  0  0  0  0  0  0  0  0  0  0
    5.3317   -0.9570    0.0000 C   0  0  0  0  0  0  0  0  0  0  0  0
    6.7688   -1.3870    0.0000 C   0  0  0  0  0  0  0  0  0  0  0  0
    4.9855    0.5025    0.0000 C   0  0  0  0  0  0  0  0  0  0  0  0
    1.7129   -2.5862    0.0000 N   0  0  0  0  0  0  0  0  0  0  0  0
    0.2759   -2.1563    0.0000 C   0  0  0  0  0  0  0  0  0  0  0  0
   -0.0703   -0.6968    0.0000 O   0  0  0  0  0  0  0  0  0  0  0  0
   -0.8150   -3.1859    0.0000 C   0  0  0  0  0  0  0  0  0  0  0  0
   -0.4688   -4.6454    0.0000 C   0  0  0  0  0  0  0  0  0  0  0  0
    0.9683   -5.0753    0.0000 C   0  0  0  0  0  0  0  0  0  0  0  0
    1.3145   -6.5348    0.0000 C   0  0  0  0  0  0  0  0  0  0  0  0
    2.0591   -4.0457    0.0000 C   0  0  0  0  0  0  0  0  0  0  0  0
   -2.2520   -2.7559    0.0000 N   0  0  0  0  0  0  0  0  0  0  0  0
   -2.5982   -1.2964    0.0000 C   0  0  0  0  0  0  0  0  0  0  0  0
   -1.5074   -0.2669    0.0000 O   0  0  0  0  0  0  0  0  0  0  0  0
   -4.0353   -0.8665    0.0000 O   0  0  0  0  0  0  0  0  0  0  0  0
   -4.3815    0.5930    0.0000 C   0  0  0  0  0  0  0  0  0  0  0  0
   -5.8186    1.0229    0.0000 C   0  0  0  0  0  0  0  0  0  0  0  0
   -6.9094   -0.0066    0.0000 C   0  0  0  0  0  0  0  0  0  0  0  0
   -8.3465    0.4233    0.0000 C   0  0  0  0  0  0  0  0  0  0  0  0
   -8.6927    1.8828    0.0000 C   0  0  0  0  0  0  0  0  0  0  0  0
   -7.6018    2.9124    0.0000 C   0  0  0  0  0  0  0  0  0  0  0  0
   -6.1648    2.4824    0.0000 C   0  0  0  0  0  0  0  0  0  0  0  0
    1.7652    2.8218    0.0000 C   0  0  0  0  0  0  0  0  0  0  0  0
    1.4190    4.2813    0.0000 O   0  0  0  0  0  0  0  0  0  0  0  0
  1  2  1  0
  2  3  1  0
  2  4  1  0
  4  5  1  0
  5  6  1  0
  5 33  1  0
  6  7  1  0
  7  8  2  0
  7  9  1  0
  9 10  1  0
  9 14  1  0
 10 11  1  0
 11 12  1  0
 11 13  1  0
 14 15  1  0
 15 16  2  0
 15 17  1  0
 17 18  1  0
 17 22  1  0
 18 19  1  0
 19 20  1  0
 19 21  1  0
 22 23  1  0
 23 24  2  0
 23 25  1  0
 25 26  1  0
 26 27  1  0
 27 28  2  0
 27 32  1  0
 28 29  1  0
 29 30  2  0
 30 31  1  0
 31 32  2  0
 33 34  2  0
M  END
>  <s_m_entry_id>  (98) 
144

>  <s_m_entry_name>  (98) 
SIM_Broad_MProResults_ligprep.144

>  <Mol2_MolInfo_Name>  (98) 
11911

>  <Mol2_MolInfo_Type>  (98) 
SMALL

>  <Mol2_MolInfo_Charge>  (98) 
USER_CHARGES

>  <Mol2_Substructures>  (98) 
     1 UNK         1 GROUP             0       ****    0 ROOT    

>  <Name>  (98) 
11911

>  <s_m_Source_Path>  (98) 
/home/jgilaber/drug_learning/drug_learning/datasets/SARS2

>  <s_m_Source_File>  (98) 
SIM_Broad_MProResults_ligprep.sd

>  <i_m_Source_File_Index>  (98) 
144

>  <s_m_subgroup_title>  (98) 
SIM_Broad_MProResults_ligprep

>  <s_m_subgroupid>  (98) 
SIM_Broad_MProResults_ligprep

>  <b_m_subgroup_collapsed>  (98) 
0

$$$$
445
     RDKit          2D

 25 27  0  0  1  0  0  0  0  0999 V2000
   -9.4210    2.4728    0.0000 C   0  0  0  0  0  0  0  0  0  0  0  0
   -8.7515    1.1306    0.0000 C   0  0  0  0  0  0  0  0  0  0  0  0
   -7.2542    1.0393    0.0000 O   0  0  0  0  0  0  0  0  0  0  0  0
   -6.5847   -0.3030    0.0000 C   0  0  0  0  0  0  0  0  0  0  0  0
   -7.4123   -1.5540    0.0000 O   0  0  0  0  0  0  0  0  0  0  0  0
   -5.0875   -0.3943    0.0000 C   0  0  0  0  0  0  0  0  0  0  0  0
   -4.2598    0.8567    0.0000 C   0  0  0  0  0  0  0  0  0  0  0  0
   -2.7626    0.7654    0.0000 C   0  0  0  0  0  0  0  0  0  0  0  0
   -2.0930   -0.5768    0.0000 C   0  0  0  0  0  0  0  0  0  0  0  0
   -2.9207   -1.8278    0.0000 N   0  0  0  0  0  0  0  0  0  0  0  0
   -4.4179   -1.7365    0.0000 C   0  0  0  0  0  0  0  0  0  0  0  0
   -0.5958   -0.6681    0.0000 C   0  0  0  0  0  0  0  0  0  0  0  0
    0.9014   -0.7594    0.0000 C   0  0  0  0  0  0  0  0  0  0  0  0
    2.3986   -0.8507    0.0000 C   0  0  0  0  0  0  0  0  0  0  0  0
    3.0682   -2.1930    0.0000 C   0  0  0  0  0  0  0  0  0  0  0  0
    4.5654   -2.2843    0.0000 C   0  0  0  0  0  0  0  0  0  0  0  0
    5.3931   -1.0333    0.0000 C   0  0  0  0  0  0  0  0  0  0  0  0
    6.8903   -1.1246    0.0000 S   0  0  0  0  0  0  0  0  0  0  0  0
    7.7180    0.1264    0.0000 C   0  0  0  0  0  0  0  0  0  0  0  0
    7.0484    1.4687    0.0000 C   0  0  0  0  0  0  0  0  0  0  0  0
    5.5512    1.5600    0.0000 C   0  0  0  0  0  0  0  0  0  0  0  0
    4.1755    2.1579    0.0000 C   0  0  0  0  0  0  0  0  0  0  0  0
    5.9011    3.0186    0.0000 C   0  0  0  0  0  0  0  0  0  0  0  0
    4.7235    0.3090    0.0000 C   0  0  0  0  0  0  0  0  0  0  0  0
    3.2263    0.4003    0.0000 C   0  0  0  0  0  0  0  0  0  0  0  0
  1  2  1  0
  2  3  1  0
  3  4  1  0
  4  5  2  0
  4  6  1  0
  6  7  2  0
  6 11  1  0
  7  8  1  0
  8  9  2  0
  9 10  1  0
  9 12  1  0
 10 11  2  0
 12 13  3  0
 13 14  1  0
 14 15  2  0
 14 25  1  0
 15 16  1  0
 16 17  2  0
 17 18  1  0
 17 24  1  0
 18 19  1  0
 19 20  1  0
 20 21  1  0
 21 22  1  0
 21 23  1  0
 21 24  1  0
 24 25  2  0
M  END
>  <s_m_entry_id>  (99) 
179

>  <s_m_entry_name>  (99) 
SIM_Broad_MProResults_ligprep.179

>  <Mol2_MolInfo_Name>  (99) 
445

>  <Mol2_MolInfo_Type>  (99) 
SMALL

>  <Mol2_MolInfo_Charge>  (99) 
USER_CHARGES

>  <Mol2_Substructures>  (99) 
     1 ****        1 GROUP             0       ****    0 ROOT    

>  <Name>  (99) 
445

>  <s_m_Source_Path>  (99) 
/home/jgilaber/drug_learning/drug_learning/datasets/SARS2

>  <s_m_Source_File>  (99) 
SIM_Broad_MProResults_ligprep.sd

>  <i_m_Source_File_Index>  (99) 
179

>  <s_m_subgroup_title>  (99) 
SIM_Broad_MProResults_ligprep

>  <s_m_subgroupid>  (99) 
SIM_Broad_MProResults_ligprep

>  <b_m_subgroup_collapsed>  (99) 
0

$$$$
11361
     RDKit          2D

 49 61  0  0  1  0  0  0  0  0999 V2000
   -7.9019   -4.3525    0.0000 O   0  0  0  0  0  0  0  0  0  0  0  0
   -7.4800   -2.9131    0.0000 C   0  0  0  0  0  0  0  0  0  0  0  0
   -8.5156   -1.8280    0.0000 C   0  0  0  0  0  0  0  0  0  0  0  0
   -8.0936   -0.3885    0.0000 C   0  0  0  0  0  0  0  0  0  0  0  0
   -6.6361   -0.0342    0.0000 C   0  0  0  0  0  0  0  0  0  0  0  0
   -6.2142    1.4052    0.0000 C   0  0  0  0  0  0  0  0  0  0  0  0
   -4.7566    1.7595    0.0000 C   0  0  0  0  0  0  0  0  0  0  0  0
   -3.2991    2.1138    0.0000 N   0  0  0  0  0  0  0  0  0  0  0  0
   -2.8771    3.5533    0.0000 C   0  0  0  0  0  0  0  0  0  0  0  0
   -3.9127    4.6384    0.0000 C   0  0  0  0  0  0  0  0  0  0  0  0
   -5.3522    5.0603    0.0000 C   0  0  0  0  0  0  0  0  0  0  0  0
   -4.2671    6.0960    0.0000 C   0  0  0  0  0  0  0  0  0  0  0  0
   -2.2634    1.0287    0.0000 C   0  0  0  0  0  0  0  0  0  0  0  0
   -2.6854   -0.4107    0.0000 C   0  0  0  0  0  0  0  0  0  0  0  0
   -4.1429   -0.7650    0.0000 C   0  0  0  0  0  0  0  0  0  0  0  0
   -3.1073   -1.8501    0.0000 C   0  0  0  0  0  0  0  0  0  0  0  0
   -4.0782   -2.9935    0.0000 O   0  0  0  0  0  0  0  0  0  0  0  0
   -6.0224   -2.5588    0.0000 C   0  0  0  0  0  0  0  0  0  0  0  0
   -5.6005   -1.1193    0.0000 C   0  0  0  0  0  0  0  0  0  0  0  0
   -1.6497   -1.4958    0.0000 C   0  0  0  0  0  0  0  0  0  0  0  0
   -0.4111   -2.3419    0.0000 N   0  0  0  0  0  0  0  0  0  0  0  0
    0.7763   -1.4254    0.0000 C   0  0  0  0  0  0  0  0  0  0  0  0
    2.2519   -1.6946    0.0000 C   0  0  0  0  0  0  0  0  0  0  0  0
    3.0393   -2.9713    0.0000 O   0  0  0  0  0  0  0  0  0  0  0  0
    4.4969   -2.6170    0.0000 C   0  0  0  0  0  0  0  0  0  0  0  0
    5.7355   -3.4631    0.0000 C   0  0  0  0  0  0  0  0  0  0  0  0
    5.6220   -4.9588    0.0000 O   0  0  0  0  0  0  0  0  0  0  0  0
    7.0875   -2.8135    0.0000 C   0  0  0  0  0  0  0  0  0  0  0  0
    7.2009   -1.3178    0.0000 C   0  0  0  0  0  0  0  0  0  0  0  0
    5.9623   -0.4717    0.0000 C   0  0  0  0  0  0  0  0  0  0  0  0
    4.0150    0.5406    0.0000 C   0  0  0  0  0  0  0  0  0  0  0  0
    3.6891    2.0047    0.0000 C   0  0  0  0  0  0  0  0  0  0  0  0
    4.7116    1.2020    0.0000 N   0  0  0  0  0  0  0  0  0  0  0  0
    6.1356    2.8789    0.0000 C   0  0  0  0  0  0  0  0  0  0  0  0
    7.6113    2.6098    0.0000 C   0  0  0  0  0  0  0  0  0  0  0  0
    9.0238    3.1145    0.0000 C   0  0  0  0  0  0  0  0  0  0  0  0
    8.7547    1.6388    0.0000 C   0  0  0  0  0  0  0  0  0  0  0  0
    4.9808    0.4486    0.0000 C   0  0  0  0  0  0  0  0  0  0  0  0
    4.4630   -0.1612    0.0000 C   0  0  0  0  0  0  0  0  0  0  0  0
    3.2229   -0.5512    0.0000 C   0  0  0  0  0  0  0  0  0  0  0  0
    4.6103   -1.1213    0.0000 C   0  0  0  0  0  0  0  0  0  0  0  0
    2.7181    0.8613    0.0000 C   0  0  0  0  0  0  0  0  0  0  0  0
    2.2134    2.2739    0.0000 O   0  0  0  0  0  0  0  0  0  0  0  0
    1.2425    1.1305    0.0000 C   0  0  0  0  0  0  0  0  0  0  0  0
    0.2716   -0.0129    0.0000 C   0  0  0  0  0  0  0  0  0  0  0  0
   -1.2278   -0.0564    0.0000 C   0  0  0  0  0  0  0  0  0  0  0  0
   -2.6572   -0.3148    0.0000 C   0  0  0  0  0  0  0  0  0  0  0  0
   -3.7210    0.6744    0.0000 C   0  0  0  0  0  0  0  0  0  0  0  0
   -2.9633    1.9690    0.0000 O   0  0  0  0  0  0  0  0  0  0  0  0
  1  2  1  0
  2  3  2  0
  2 18  1  0
  3  4  1  0
  4  5  2  0
  5  6  1  0
  5 19  1  0
  6  7  1  0
  7  8  1  0
  7 48  1  0
  8  9  1  0
  8 13  1  0
  9 10  1  0
 10 11  1  0
 10 12  1  0
 11 12  1  0
 13 14  1  0
 14 15  1  0
 15 16  1  0
 15 19  1  0
 15 48  1  0
 16 17  1  0
 16 20  1  0
 17 18  1  0
 18 19  2  0
 20 21  1  0
 20 46  2  0
 21 22  1  0
 22 23  1  0
 22 45  2  0
 23 24  1  0
 23 40  1  0
 24 25  1  0
 25 26  1  0
 25 41  2  0
 26 27  1  0
 26 28  2  0
 28 29  1  0
 29 30  2  0
 30 31  1  0
 30 41  1  0
 31 32  1  0
 32 33  1  0
 32 42  1  0
 33 34  1  0
 33 38  1  0
 34 35  1  0
 35 36  1  0
 35 37  1  0
 36 37  1  0
 38 39  1  0
 39 40  1  0
 40 41  1  0
 40 42  1  0
 42 43  1  0
 42 44  1  0
 44 45  1  0
 45 46  1  0
 46 47  1  0
 47 48  1  0
 48 49  1  0
M  CHG  1   8   1
M  END
>  <s_m_entry_id>  (100) 
120

>  <s_m_entry_name>  (100) 
SIM_Broad_MProResults_ligprep.120

>  <Mol2_MolInfo_Name>  (100) 
11361

>  <Mol2_MolInfo_Type>  (100) 
SMALL

>  <Mol2_MolInfo_Charge>  (100) 
USER_CHARGES

>  <Mol2_Substructures>  (100) 
     1 UNK         1 GROUP             0       ****    0 ROOT    

>  <Name>  (100) 
11361

>  <s_m_Source_Path>  (100) 
/home/jgilaber/drug_learning/drug_learning/datasets/SARS2

>  <s_m_Source_File>  (100) 
SIM_Broad_MProResults_ligprep.sd

>  <i_m_Source_File_Index>  (100) 
120

>  <s_m_subgroup_title>  (100) 
SIM_Broad_MProResults_ligprep

>  <s_m_subgroupid>  (100) 
SIM_Broad_MProResults_ligprep

>  <b_m_subgroup_collapsed>  (100) 
0

$$$$
11006
     RDKit          2D

 18 19  0  0  1  0  0  0  0  0999 V2000
    6.3270   -0.5432    0.0000 C   0  0  0  0  0  0  0  0  0  0  0  0
    4.8409   -0.3395    0.0000 C   0  0  0  0  0  0  0  0  0  0  0  0
    3.9214   -1.5247    0.0000 C   0  0  0  0  0  0  0  0  0  0  0  0
    2.4353   -1.3210    0.0000 C   0  0  0  0  0  0  0  0  0  0  0  0
    1.8687    0.0678    0.0000 C   0  0  0  0  0  0  0  0  0  0  0  0
    2.7881    1.2530    0.0000 C   0  0  0  0  0  0  0  0  0  0  0  0
    4.2742    1.0493    0.0000 C   0  0  0  0  0  0  0  0  0  0  0  0
    0.3826    0.2715    0.0000 S   0  0  0  0  0  0  0  0  0  0  0  0
    0.5862    1.7576    0.0000 O   0  0  0  0  0  0  0  0  0  0  0  0
    0.1789   -1.2146    0.0000 O   0  0  0  0  0  0  0  0  0  0  0  0
   -1.1035    0.4752    0.0000 C   0  0  0  0  0  0  0  0  0  0  0  0
   -2.1418   -0.6074    0.0000 O   0  0  0  0  0  0  0  0  0  0  0  0
   -3.4923    0.0455    0.0000 C   0  0  0  0  0  0  0  0  0  0  0  0
   -3.2886    1.5316    0.0000 C   0  0  0  0  0  0  0  0  0  0  0  0
   -1.8123    1.7972    0.0000 C   0  0  0  0  0  0  0  0  0  0  0  0
   -4.8143   -0.6632    0.0000 N   0  0  0  0  0  0  0  0  0  0  0  0
   -4.8615   -2.1625    0.0000 O   0  0  0  0  0  0  0  0  0  0  0  0
   -6.0891    0.1273    0.0000 O   0  0  0  0  0  0  0  0  0  0  0  0
  1  2  1  0
  2  3  2  0
  2  7  1  0
  3  4  1  0
  4  5  2  0
  5  6  1  0
  5  8  1  0
  6  7  2  0
  8  9  2  0
  8 10  2  0
  8 11  1  0
 11 12  1  0
 11 15  2  0
 12 13  1  0
 13 14  2  0
 13 16  1  0
 14 15  1  0
 16 17  2  0
 16 18  1  0
M  CHG  2  16   1  18  -1
M  END
>  <s_m_entry_id>  (101) 
99

>  <s_m_entry_name>  (101) 
SIM_Broad_MProResults_ligprep.99

>  <Mol2_MolInfo_Name>  (101) 
11006

>  <Mol2_MolInfo_Type>  (101) 
SMALL

>  <Mol2_MolInfo_Charge>  (101) 
USER_CHARGES

>  <Mol2_Substructures>  (101) 
     1 UNK         1 GROUP             0       ****    0 ROOT    

>  <Name>  (101) 
11006

>  <s_m_Source_Path>  (101) 
/home/jgilaber/drug_learning/drug_learning/datasets/SARS2

>  <s_m_Source_File>  (101) 
SIM_Broad_MProResults_ligprep.sd

>  <i_m_Source_File_Index>  (101) 
99

>  <s_m_subgroup_title>  (101) 
SIM_Broad_MProResults_ligprep

>  <s_m_subgroupid>  (101) 
SIM_Broad_MProResults_ligprep

>  <b_m_subgroup_collapsed>  (101) 
0

$$$$
11488
     RDKit          2D

 14 15  0  0  1  0  0  0  0  0999 V2000
    5.3891   -0.9728    0.0000 O   0  0  0  0  0  0  0  0  0  0  0  0
    4.2828    0.0401    0.0000 N   0  0  0  0  0  0  0  0  0  0  0  0
    4.6068    1.5047    0.0000 O   0  0  0  0  0  0  0  0  0  0  0  0
    2.8524   -0.4116    0.0000 C   0  0  0  0  0  0  0  0  0  0  0  0
    1.7460    0.6013    0.0000 C   0  0  0  0  0  0  0  0  0  0  0  0
    0.3157    0.1496    0.0000 C   0  0  0  0  0  0  0  0  0  0  0  0
   -0.0084   -1.3150    0.0000 C   0  0  0  0  0  0  0  0  0  0  0  0
   -1.4387   -1.7666    0.0000 C   0  0  0  0  0  0  0  0  0  0  0  0
   -2.5451   -0.7537    0.0000 C   0  0  0  0  0  0  0  0  0  0  0  0
   -4.0381   -0.8981    0.0000 O   0  0  0  0  0  0  0  0  0  0  0  0
   -4.6369    0.4772    0.0000 C   0  0  0  0  0  0  0  0  0  0  0  0
   -3.5138    1.4716    0.0000 O   0  0  0  0  0  0  0  0  0  0  0  0
   -2.2211    0.7109    0.0000 C   0  0  0  0  0  0  0  0  0  0  0  0
   -0.7907    1.1625    0.0000 C   0  0  0  0  0  0  0  0  0  0  0  0
  1  2  1  0
  2  3  2  0
  2  4  1  0
  4  5  2  0
  5  6  1  0
  6  7  2  0
  6 14  1  0
  7  8  1  0
  8  9  2  0
  9 10  1  0
  9 13  1  0
 10 11  1  0
 11 12  1  0
 12 13  1  0
 13 14  2  0
M  CHG  2   1  -1   2   1
M  END
>  <s_m_entry_id>  (102) 
364

>  <s_m_entry_name>  (102) 
SIM_Broad_MProResults_ligprep.364

>  <Mol2_MolInfo_Name>  (102) 
11488

>  <Mol2_MolInfo_Type>  (102) 
SMALL

>  <Mol2_MolInfo_Charge>  (102) 
USER_CHARGES

>  <Mol2_Substructures>  (102) 
     1 ****        1 GROUP             0       ****    0 ROOT    

>  <Name>  (102) 
11488

>  <s_m_Source_Path>  (102) 
/home/jgilaber/drug_learning/drug_learning/datasets/SARS2

>  <s_m_Source_File>  (102) 
SIM_Broad_MProResults_ligprep.sd

>  <i_m_Source_File_Index>  (102) 
364

>  <s_m_subgroup_title>  (102) 
SIM_Broad_MProResults_ligprep

>  <s_m_subgroupid>  (102) 
SIM_Broad_MProResults_ligprep

>  <b_m_subgroup_collapsed>  (102) 
0

$$$$
7998
     RDKit          2D

 24 26  0  0  1  0  0  0  0  0999 V2000
   -3.3834   -2.6705    0.0000 N   0  0  0  0  0  0  0  0  0  0  0  0
   -3.2439   -1.1770    0.0000 C   0  0  0  0  0  0  0  0  0  0  0  0
   -1.8808   -0.5511    0.0000 C   0  0  0  0  0  0  0  0  0  0  0  0
   -1.7413    0.9424    0.0000 O   0  0  0  0  0  0  0  0  0  0  0  0
   -0.6571   -1.4186    0.0000 N   0  0  0  0  0  0  0  0  0  0  0  0
    0.7061   -0.7927    0.0000 C   0  0  0  0  0  0  0  0  0  0  0  0
    2.1126   -1.3139    0.0000 C   0  0  0  0  0  0  0  0  0  0  0  0
    3.0700   -2.4686    0.0000 S   0  0  0  0  0  0  0  0  0  0  0  0
    4.5487   -2.2168    0.0000 C   0  0  0  0  0  0  0  0  0  0  0  0
    5.0700   -0.8103    0.0000 C   0  0  0  0  0  0  0  0  0  0  0  0
    4.1126    0.3444    0.0000 C   0  0  0  0  0  0  0  0  0  0  0  0
    2.6338    0.0926    0.0000 N   0  0  0  0  0  0  0  0  0  0  0  0
    1.2273    0.6139    0.0000 C   0  0  0  0  0  0  0  0  0  0  0  0
    0.6014    1.9770    0.0000 O   0  0  0  0  0  0  0  0  0  0  0  0
    4.6338    1.7509    0.0000 C   0  0  0  0  0  0  0  0  0  0  0  0
    3.6764    2.9056    0.0000 O   0  0  0  0  0  0  0  0  0  0  0  0
    6.1125    2.0027    0.0000 O   0  0  0  0  0  0  0  0  0  0  0  0
    6.5487   -0.5585    0.0000 Cl  0  0  0  0  0  0  0  0  0  0  0  0
   -4.4676   -0.3095    0.0000 C   0  0  0  0  0  0  0  0  0  0  0  0
   -4.3281    1.1840    0.0000 C   0  0  0  0  0  0  0  0  0  0  0  0
   -5.5518    2.0516    0.0000 C   0  0  0  0  0  0  0  0  0  0  0  0
   -6.9149    1.4256    0.0000 C   0  0  0  0  0  0  0  0  0  0  0  0
   -7.0544   -0.0679    0.0000 C   0  0  0  0  0  0  0  0  0  0  0  0
   -5.8307   -0.9354    0.0000 C   0  0  0  0  0  0  0  0  0  0  0  0
  1  2  1  0
  2  3  1  0
  2 19  1  0
  3  4  2  0
  3  5  1  0
  5  6  1  0
  6  7  1  0
  6 13  1  0
  7  8  1  0
  7 12  1  0
  8  9  1  0
  9 10  1  0
 10 11  2  0
 10 18  1  0
 11 12  1  0
 11 15  1  0
 12 13  1  0
 13 14  2  0
 15 16  2  0
 15 17  1  0
 19 20  2  0
 19 24  1  0
 20 21  1  0
 21 22  2  0
 22 23  1  0
 23 24  2  0
M  CHG  1  17  -1
M  END
>  <s_m_entry_id>  (103) 
220

>  <s_m_entry_name>  (103) 
SIM_Broad_MProResults_ligprep.220

>  <Mol2_MolInfo_Name>  (103) 
7998

>  <Mol2_MolInfo_Type>  (103) 
SMALL

>  <Mol2_MolInfo_Charge>  (103) 
USER_CHARGES

>  <Mol2_Substructures>  (103) 
     1 ****        1 GROUP             0       ****    0 ROOT    

>  <Name>  (103) 
7998

>  <s_m_Source_Path>  (103) 
/home/jgilaber/drug_learning/drug_learning/datasets/SARS2

>  <s_m_Source_File>  (103) 
SIM_Broad_MProResults_ligprep.sd

>  <i_m_Source_File_Index>  (103) 
220

>  <s_m_subgroup_title>  (103) 
SIM_Broad_MProResults_ligprep

>  <s_m_subgroupid>  (103) 
SIM_Broad_MProResults_ligprep

>  <b_m_subgroup_collapsed>  (103) 
0

$$$$
12644
     RDKit          2D

 25 27  0  0  1  0  0  0  0  0999 V2000
    5.9843    2.8161    0.0000 C   0  0  0  0  0  0  0  0  0  0  0  0
    4.4881    2.9229    0.0000 C   0  0  0  0  0  0  0  0  0  0  0  0
    3.8325    4.2720    0.0000 O   0  0  0  0  0  0  0  0  0  0  0  0
    3.6475    1.6805    0.0000 O   0  0  0  0  0  0  0  0  0  0  0  0
    2.1513    1.7873    0.0000 N   0  0  0  0  0  0  0  0  0  0  0  0
    1.3108    0.5449    0.0000 C   0  0  0  0  0  0  0  0  0  0  0  0
   -0.1884    0.4947    0.0000 C   0  0  0  0  0  0  0  0  0  0  0  0
   -1.1102    1.6781    0.0000 O   0  0  0  0  0  0  0  0  0  0  0  0
   -0.6039   -0.9466    0.0000 N   0  0  0  0  0  0  0  0  0  0  0  0
   -2.0142   -1.4576    0.0000 C   0  0  0  0  0  0  0  0  0  0  0  0
   -3.1619   -0.4917    0.0000 C   0  0  0  0  0  0  0  0  0  0  0  0
   -2.8993    0.9851    0.0000 C   0  0  0  0  0  0  0  0  0  0  0  0
   -4.0470    1.9509    0.0000 C   0  0  0  0  0  0  0  0  0  0  0  0
   -3.7844    3.4278    0.0000 Cl  0  0  0  0  0  0  0  0  0  0  0  0
   -5.4572    1.4399    0.0000 C   0  0  0  0  0  0  0  0  0  0  0  0
   -5.7198   -0.0369    0.0000 C   0  0  0  0  0  0  0  0  0  0  0  0
   -4.5722   -1.0027    0.0000 C   0  0  0  0  0  0  0  0  0  0  0  0
   -4.8347   -2.4796    0.0000 Cl  0  0  0  0  0  0  0  0  0  0  0  0
    0.6384   -1.7871    0.0000 C   0  0  0  0  0  0  0  0  0  0  0  0
    0.8451   -3.2728    0.0000 C   0  0  0  0  0  0  0  0  0  0  0  0
    2.2350   -3.8367    0.0000 C   0  0  0  0  0  0  0  0  0  0  0  0
    3.4184   -2.9149    0.0000 C   0  0  0  0  0  0  0  0  0  0  0  0
    4.8083   -3.4788    0.0000 Cl  0  0  0  0  0  0  0  0  0  0  0  0
    3.2117   -1.4292    0.0000 C   0  0  0  0  0  0  0  0  0  0  0  0
    1.8218   -0.8653    0.0000 C   0  0  0  0  0  0  0  0  0  0  0  0
  1  2  1  0
  2  3  2  0
  2  4  1  0
  4  5  1  0
  5  6  2  0
  6  7  1  0
  6 25  1  0
  7  8  2  0
  7  9  1  0
  9 10  1  0
  9 19  1  0
 10 11  1  0
 11 12  2  0
 11 17  1  0
 12 13  1  0
 13 14  1  0
 13 15  2  0
 15 16  1  0
 16 17  2  0
 17 18  1  0
 19 20  2  0
 19 25  1  0
 20 21  1  0
 21 22  2  0
 22 23  1  0
 22 24  1  0
 24 25  2  0
M  END
>  <s_m_entry_id>  (104) 
166

>  <s_m_entry_name>  (104) 
SIM_Broad_MProResults_ligprep.166

>  <Mol2_MolInfo_Name>  (104) 
12644

>  <Mol2_MolInfo_Type>  (104) 
SMALL

>  <Mol2_MolInfo_Charge>  (104) 
USER_CHARGES

>  <Mol2_Substructures>  (104) 
     1 UNK         1 GROUP             0       ****    0 ROOT    

>  <Name>  (104) 
12644

>  <s_m_Source_Path>  (104) 
/home/jgilaber/drug_learning/drug_learning/datasets/SARS2

>  <s_m_Source_File>  (104) 
SIM_Broad_MProResults_ligprep.sd

>  <i_m_Source_File_Index>  (104) 
166

>  <s_m_subgroup_title>  (104) 
SIM_Broad_MProResults_ligprep

>  <s_m_subgroupid>  (104) 
SIM_Broad_MProResults_ligprep

>  <b_m_subgroup_collapsed>  (104) 
0

$$$$
8225
     RDKit          2D

 20 23  0  0  1  0  0  0  0  0999 V2000
    2.9620   -4.0282    0.0000 C   0  0  0  0  0  0  0  0  0  0  0  0
    1.8169   -3.0594    0.0000 N   0  0  0  0  0  0  0  0  0  0  0  0
    0.4053   -3.5667    0.0000 C   0  0  0  0  0  0  0  0  0  0  0  0
   -0.7399   -2.5979    0.0000 C   0  0  0  0  0  0  0  0  0  0  0  0
   -0.4735   -1.1218    0.0000 N   0  0  0  0  0  0  0  0  0  0  0  0
    0.9381   -0.6144    0.0000 C   0  0  0  0  0  0  0  0  0  0  0  0
    2.0833   -1.5832    0.0000 C   0  0  0  0  0  0  0  0  0  0  0  0
    1.4216    0.8055    0.0000 C   0  0  0  0  0  0  0  0  0  0  0  0
    2.9200    0.8742    0.0000 C   0  0  0  0  0  0  0  0  0  0  0  0
    3.6097    2.2063    0.0000 C   0  0  0  0  0  0  0  0  0  0  0  0
    2.8009    3.4696    0.0000 C   0  0  0  0  0  0  0  0  0  0  0  0
    1.3025    3.4009    0.0000 C   0  0  0  0  0  0  0  0  0  0  0  0
    0.6128    2.0688    0.0000 C   0  0  0  0  0  0  0  0  0  0  0  0
   -0.8791    2.2242    0.0000 C   0  0  0  0  0  0  0  0  0  0  0  0
   -1.9308    1.1546    0.0000 C   0  0  0  0  0  0  0  0  0  0  0  0
   -3.3106    1.7428    0.0000 C   0  0  0  0  0  0  0  0  0  0  0  0
   -4.5100    0.8419    0.0000 C   0  0  0  0  0  0  0  0  0  0  0  0
   -4.3294   -0.6472    0.0000 C   0  0  0  0  0  0  0  0  0  0  0  0
   -2.9496   -1.2354    0.0000 C   0  0  0  0  0  0  0  0  0  0  0  0
   -1.7503   -0.3345    0.0000 C   0  0  0  0  0  0  0  0  0  0  0  0
  1  2  1  0
  2  3  1  0
  2  7  1  0
  3  4  1  0
  4  5  1  0
  5  6  1  0
  5 20  1  0
  6  7  1  0
  6  8  1  0
  8  9  1  0
  8 13  2  0
  9 10  2  0
 10 11  1  0
 11 12  2  0
 12 13  1  0
 13 14  1  0
 14 15  1  0
 15 16  1  0
 15 20  2  0
 16 17  2  0
 17 18  1  0
 18 19  2  0
 19 20  1  0
M  END
>  <s_m_entry_id>  (105) 
226

>  <s_m_entry_name>  (105) 
SIM_Broad_MProResults_ligprep.226

>  <Mol2_MolInfo_Name>  (105) 
8225

>  <Mol2_MolInfo_Type>  (105) 
SMALL

>  <Mol2_MolInfo_Charge>  (105) 
USER_CHARGES

>  <Mol2_Substructures>  (105) 
     1 ****        1 GROUP             0       ****    0 ROOT    

>  <Name>  (105) 
8225

>  <s_m_Source_Path>  (105) 
/home/jgilaber/drug_learning/drug_learning/datasets/SARS2

>  <s_m_Source_File>  (105) 
SIM_Broad_MProResults_ligprep.sd

>  <i_m_Source_File_Index>  (105) 
226

>  <s_m_subgroup_title>  (105) 
SIM_Broad_MProResults_ligprep

>  <s_m_subgroupid>  (105) 
SIM_Broad_MProResults_ligprep

>  <b_m_subgroup_collapsed>  (105) 
0

$$$$
4271
     RDKit          2D

 22 23  0  0  1  0  0  0  0  0999 V2000
   -3.8125    2.9597    0.0000 C   0  0  0  0  0  0  0  0  0  0  0  0
   -3.0650    1.6592    0.0000 C   0  0  0  0  0  0  0  0  0  0  0  0
   -1.5650    1.6563    0.0000 N   0  0  0  0  0  0  0  0  0  0  0  0
   -0.8175    0.3559    0.0000 C   0  0  0  0  0  0  0  0  0  0  0  0
   -1.5700   -0.9417    0.0000 O   0  0  0  0  0  0  0  0  0  0  0  0
    0.6825    0.3530    0.0000 C   0  0  0  0  0  0  0  0  0  0  0  0
    1.4300   -0.9475    0.0000 C   0  0  0  0  0  0  0  0  0  0  0  0
    2.9300   -0.9504    0.0000 C   0  0  0  0  0  0  0  0  0  0  0  0
    3.6775   -2.2509    0.0000 C   0  0  0  0  0  0  0  0  0  0  0  0
    5.1775   -2.2538    0.0000 C   0  0  0  0  0  0  0  0  0  0  0  0
    5.9300   -0.9562    0.0000 C   0  0  0  0  0  0  0  0  0  0  0  0
    5.1825    0.3443    0.0000 C   0  0  0  0  0  0  0  0  0  0  0  0
    5.9350    1.6419    0.0000 Br  0  0  0  0  0  0  0  0  0  0  0  0
    3.6825    0.3472    0.0000 N   0  0  0  0  0  0  0  0  0  0  0  0
    1.4350    1.6506    0.0000 C   0  0  0  0  0  0  0  0  0  0  0  0
    2.1875    2.9482    0.0000 N   0  0  0  0  0  0  0  0  0  0  0  0
   -3.8175    0.3616    0.0000 C   0  0  0  0  0  0  0  0  0  0  0  0
   -5.3175    0.3645    0.0000 C   0  0  0  0  0  0  0  0  0  0  0  0
   -6.0700   -0.9331    0.0000 C   0  0  0  0  0  0  0  0  0  0  0  0
   -5.3225   -2.2336    0.0000 C   0  0  0  0  0  0  0  0  0  0  0  0
   -3.8225   -2.2364    0.0000 C   0  0  0  0  0  0  0  0  0  0  0  0
   -3.0700   -0.9388    0.0000 C   0  0  0  0  0  0  0  0  0  0  0  0
  1  2  1  0
  2  3  1  0
  2 17  1  0
  3  4  1  0
  4  5  2  0
  4  6  1  0
  6  7  2  0
  6 15  1  0
  7  8  1  0
  8  9  2  0
  8 14  1  0
  9 10  1  0
 10 11  2  0
 11 12  1  0
 12 13  1  0
 12 14  2  0
 15 16  3  0
 17 18  2  0
 17 22  1  0
 18 19  1  0
 19 20  2  0
 20 21  1  0
 21 22  2  0
M  END
>  <s_m_entry_id>  (106) 
250

>  <s_m_entry_name>  (106) 
SIM_Broad_MProResults_ligprep.250

>  <Mol2_MolInfo_Name>  (106) 
4271

>  <Mol2_MolInfo_Type>  (106) 
SMALL

>  <Mol2_MolInfo_Charge>  (106) 
USER_CHARGES

>  <Mol2_Substructures>  (106) 
     1 UNK         1 GROUP             0       ****    0 ROOT    

>  <Name>  (106) 
4271

>  <s_m_Source_Path>  (106) 
/home/jgilaber/drug_learning/drug_learning/datasets/SARS2

>  <s_m_Source_File>  (106) 
SIM_Broad_MProResults_ligprep.sd

>  <i_m_Source_File_Index>  (106) 
250

>  <s_m_subgroup_title>  (106) 
SIM_Broad_MProResults_ligprep

>  <s_m_subgroupid>  (106) 
SIM_Broad_MProResults_ligprep

>  <b_m_subgroup_collapsed>  (106) 
0

$$$$
3564
     RDKit          2D

 49 52  0  0  1  0  0  0  0  0999 V2000
   11.0514   -0.5954    0.0000 C   0  0  0  0  0  0  0  0  0  0  0  0
    9.8016   -1.4249    0.0000 C   0  0  0  0  0  0  0  0  0  0  0  0
    8.4583   -0.7573    0.0000 C   0  0  0  0  0  0  0  0  0  0  0  0
    7.2085   -1.5868    0.0000 C   0  0  0  0  0  0  0  0  0  0  0  0
    5.8653   -0.9191    0.0000 C   0  0  0  0  0  0  0  0  0  0  0  0
    4.6155   -1.7486    0.0000 N   0  0  0  0  0  0  0  0  0  0  0  0
    3.2723   -1.0810    0.0000 C   0  0  0  0  0  0  0  0  0  0  0  0
    3.1788    0.4161    0.0000 O   0  0  0  0  0  0  0  0  0  0  0  0
    2.0225   -1.9105    0.0000 C   0  0  0  0  0  0  0  0  0  0  0  0
    1.9589   -3.4091    0.0000 C   0  0  0  0  0  0  0  0  0  0  0  0
    0.5140   -3.8118    0.0000 C   0  0  0  0  0  0  0  0  0  0  0  0
   -0.3155   -2.5620    0.0000 C   0  0  0  0  0  0  0  0  0  0  0  0
    0.6168   -1.3869    0.0000 N   0  0  0  0  0  0  0  0  0  0  0  0
    0.2141    0.0580    0.0000 C   0  0  0  0  0  0  0  0  0  0  0  0
    1.2642    1.1292    0.0000 O   0  0  0  0  0  0  0  0  0  0  0  0
   -1.2386    0.4318    0.0000 C   0  0  0  0  0  0  0  0  0  0  0  0
   -2.2886   -0.6394    0.0000 N   0  0  0  0  0  0  0  0  0  0  0  0
   -3.7413   -0.2657    0.0000 C   0  0  0  0  0  0  0  0  0  0  0  0
   -4.1439    1.1793    0.0000 O   0  0  0  0  0  0  0  0  0  0  0  0
   -4.7913   -1.3369    0.0000 N   0  0  0  0  0  0  0  0  0  0  0  0
   -6.2440   -0.9631    0.0000 C   0  0  0  0  0  0  0  0  0  0  0  0
   -5.6236    0.4026    0.0000 C   0  0  0  0  0  0  0  0  0  0  0  0
   -6.4962    1.6227    0.0000 S   0  0  0  0  0  0  0  0  0  0  0  0
   -5.2761    2.4953    0.0000 O   0  0  0  0  0  0  0  0  0  0  0  0
   -7.7163    0.7501    0.0000 O   0  0  0  0  0  0  0  0  0  0  0  0
   -7.3688    2.8428    0.0000 C   0  0  0  0  0  0  0  0  0  0  0  0
   -6.1487    3.7154    0.0000 C   0  0  0  0  0  0  0  0  0  0  0  0
   -8.5889    1.9702    0.0000 C   0  0  0  0  0  0  0  0  0  0  0  0
   -8.2414    4.0629    0.0000 C   0  0  0  0  0  0  0  0  0  0  0  0
   -6.3598   -2.4586    0.0000 C   0  0  0  0  0  0  0  0  0  0  0  0
   -7.7129   -3.1061    0.0000 C   0  0  0  0  0  0  0  0  0  0  0  0
   -8.9501   -2.2580    0.0000 C   0  0  0  0  0  0  0  0  0  0  0  0
   -8.8343   -0.7625    0.0000 C   0  0  0  0  0  0  0  0  0  0  0  0
   -7.4812   -0.1150    0.0000 C   0  0  0  0  0  0  0  0  0  0  0  0
   -1.6412    1.8767    0.0000 C   0  0  0  0  0  0  0  0  0  0  0  0
   -3.0862    1.4740    0.0000 C   0  0  0  0  0  0  0  0  0  0  0  0
   -0.1963    2.2794    0.0000 C   0  0  0  0  0  0  0  0  0  0  0  0
   -2.0439    3.3217    0.0000 C   0  0  0  0  0  0  0  0  0  0  0  0
    1.5852   -4.8618    0.0000 C   0  0  0  0  0  0  0  0  0  0  0  0
    2.9509   -5.4821    0.0000 C   0  0  0  0  0  0  0  0  0  0  0  0
    0.7371   -6.0991    0.0000 C   0  0  0  0  0  0  0  0  0  0  0  0
    5.7718    0.5779    0.0000 C   0  0  0  0  0  0  0  0  0  0  0  0
    4.4286    1.2456    0.0000 O   0  0  0  0  0  0  0  0  0  0  0  0
    7.0216    1.4074    0.0000 C   0  0  0  0  0  0  0  0  0  0  0  0
    8.3649    0.7398    0.0000 O   0  0  0  0  0  0  0  0  0  0  0  0
    6.9282    2.9045    0.0000 N   0  0  0  0  0  0  0  0  0  0  0  0
    8.1780    3.7340    0.0000 C   0  0  0  0  0  0  0  0  0  0  0  0
    8.8456    5.0772    0.0000 C   0  0  0  0  0  0  0  0  0  0  0  0
    9.6751    3.8274    0.0000 C   0  0  0  0  0  0  0  0  0  0  0  0
  1  2  1  0
  2  3  1  0
  3  4  1  0
  4  5  1  0
  5  6  1  0
  5 42  1  0
  6  7  1  0
  7  8  2  0
  7  9  1  0
  9 10  1  0
  9 13  1  0
 10 11  1  0
 10 39  1  0
 11 12  1  0
 11 39  1  0
 12 13  1  0
 13 14  1  0
 14 15  2  0
 14 16  1  0
 16 17  1  0
 16 35  1  0
 17 18  1  0
 18 19  2  0
 18 20  1  0
 20 21  1  0
 21 22  1  0
 21 30  1  0
 21 34  1  0
 22 23  1  0
 23 24  2  0
 23 25  2  0
 23 26  1  0
 26 27  1  0
 26 28  1  0
 26 29  1  0
 30 31  1  0
 31 32  1  0
 32 33  1  0
 33 34  1  0
 35 36  1  0
 35 37  1  0
 35 38  1  0
 39 40  1  0
 39 41  1  0
 42 43  2  0
 42 44  1  0
 44 45  2  0
 44 46  1  0
 46 47  1  0
 47 48  1  0
 47 49  1  0
 48 49  1  0
M  END
>  <s_m_entry_id>  (107) 
196

>  <s_m_entry_name>  (107) 
SIM_Broad_MProResults_ligprep.196

>  <Mol2_MolInfo_Name>  (107) 
3564

>  <Mol2_MolInfo_Type>  (107) 
SMALL

>  <Mol2_MolInfo_Charge>  (107) 
USER_CHARGES

>  <Mol2_Substructures>  (107) 
     1 ****        1 GROUP             0       ****    0 ROOT    

>  <Name>  (107) 
3564

>  <s_m_Source_Path>  (107) 
/home/jgilaber/drug_learning/drug_learning/datasets/SARS2

>  <s_m_Source_File>  (107) 
SIM_Broad_MProResults_ligprep.sd

>  <i_m_Source_File_Index>  (107) 
196

>  <s_m_subgroup_title>  (107) 
SIM_Broad_MProResults_ligprep

>  <s_m_subgroupid>  (107) 
SIM_Broad_MProResults_ligprep

>  <b_m_subgroup_collapsed>  (107) 
0

$$$$
11864
     RDKit          2D

 26 30  0  0  1  0  0  0  0  0999 V2000
   -9.2915    1.4100    0.0000 N   0  0  0  0  0  0  0  0  0  0  0  0
   -7.8492    0.9980    0.0000 C   0  0  0  0  0  0  0  0  0  0  0  0
   -6.7712    2.0411    0.0000 C   0  0  0  0  0  0  0  0  0  0  0  0
   -5.3289    1.6291    0.0000 C   0  0  0  0  0  0  0  0  0  0  0  0
   -4.9646    0.1740    0.0000 C   0  0  0  0  0  0  0  0  0  0  0  0
   -6.0425   -0.8691    0.0000 C   0  0  0  0  0  0  0  0  0  0  0  0
   -7.4848   -0.4571    0.0000 C   0  0  0  0  0  0  0  0  0  0  0  0
   -3.5223   -0.2380    0.0000 C   0  0  0  0  0  0  0  0  0  0  0  0
   -3.0078   -1.6471    0.0000 N   0  0  0  0  0  0  0  0  0  0  0  0
   -1.5088   -1.5932    0.0000 C   0  0  0  0  0  0  0  0  0  0  0  0
   -0.4657   -2.6712    0.0000 C   0  0  0  0  0  0  0  0  0  0  0  0
    0.9894   -2.3068    0.0000 C   0  0  0  0  0  0  0  0  0  0  0  0
    1.4014   -0.8645    0.0000 C   0  0  0  0  0  0  0  0  0  0  0  0
    0.3583    0.2134    0.0000 C   0  0  0  0  0  0  0  0  0  0  0  0
   -1.0968   -0.1509    0.0000 C   0  0  0  0  0  0  0  0  0  0  0  0
   -2.3412    0.6866    0.0000 N   0  0  0  0  0  0  0  0  0  0  0  0
    2.8565   -0.5002    0.0000 C   0  0  0  0  0  0  0  0  0  0  0  0
    4.0065   -1.4632    0.0000 N   0  0  0  0  0  0  0  0  0  0  0  0
    5.2778   -0.6671    0.0000 C   0  0  0  0  0  0  0  0  0  0  0  0
    6.7201   -1.0791    0.0000 C   0  0  0  0  0  0  0  0  0  0  0  0
    7.7980   -0.0361    0.0000 C   0  0  0  0  0  0  0  0  0  0  0  0
    7.4337    1.4190    0.0000 C   0  0  0  0  0  0  0  0  0  0  0  0
    8.5117    2.4621    0.0000 N   0  0  0  0  0  0  0  0  0  0  0  0
    5.9914    1.8310    0.0000 C   0  0  0  0  0  0  0  0  0  0  0  0
    4.9134    0.7880    0.0000 C   0  0  0  0  0  0  0  0  0  0  0  0
    3.4170    0.8911    0.0000 N   0  0  0  0  0  0  0  0  0  0  0  0
  1  2  1  0
  2  3  2  0
  2  7  1  0
  3  4  1  0
  4  5  2  0
  5  6  1  0
  5  8  1  0
  6  7  2  0
  8  9  2  0
  8 16  1  0
  9 10  1  0
 10 11  2  0
 10 15  1  0
 11 12  1  0
 12 13  2  0
 13 14  1  0
 13 17  1  0
 14 15  2  0
 15 16  1  0
 17 18  2  0
 17 26  1  0
 18 19  1  0
 19 20  2  0
 19 25  1  0
 20 21  1  0
 21 22  2  0
 22 23  1  0
 22 24  1  0
 24 25  2  0
 25 26  1  0
M  END
>  <s_m_entry_id>  (108) 
140

>  <s_m_entry_name>  (108) 
SIM_Broad_MProResults_ligprep.140

>  <Mol2_MolInfo_Name>  (108) 
11864

>  <Mol2_MolInfo_Type>  (108) 
SMALL

>  <Mol2_MolInfo_Charge>  (108) 
USER_CHARGES

>  <Mol2_Substructures>  (108) 
     1 UNK         1 GROUP             0       ****    0 ROOT    

>  <Name>  (108) 
11864

>  <s_m_Source_Path>  (108) 
/home/jgilaber/drug_learning/drug_learning/datasets/SARS2

>  <s_m_Source_File>  (108) 
SIM_Broad_MProResults_ligprep.sd

>  <i_m_Source_File_Index>  (108) 
140

>  <s_m_subgroup_title>  (108) 
SIM_Broad_MProResults_ligprep

>  <s_m_subgroupid>  (108) 
SIM_Broad_MProResults_ligprep

>  <b_m_subgroup_collapsed>  (108) 
0

$$$$
4021
     RDKit          2D

 25 27  0  0  1  0  0  0  0  0999 V2000
   -4.0821    3.8904    0.0000 C   0  0  0  0  0  0  0  0  0  0  0  0
   -4.5813    2.4759    0.0000 O   0  0  0  0  0  0  0  0  0  0  0  0
   -3.6060    1.3363    0.0000 C   0  0  0  0  0  0  0  0  0  0  0  0
   -2.1314    1.6112    0.0000 C   0  0  0  0  0  0  0  0  0  0  0  0
   -1.1560    0.4716    0.0000 C   0  0  0  0  0  0  0  0  0  0  0  0
    0.3186    0.7465    0.0000 C   0  0  0  0  0  0  0  0  0  0  0  0
    1.2939   -0.3931    0.0000 C   0  0  0  0  0  0  0  0  0  0  0  0
    0.7947   -1.8076    0.0000 N   0  0  0  0  0  0  0  0  0  0  0  0
    1.7701   -2.9471    0.0000 C   0  0  0  0  0  0  0  0  0  0  0  0
    3.2447   -2.6723    0.0000 C   0  0  0  0  0  0  0  0  0  0  0  0
    3.7439   -1.2578    0.0000 C   0  0  0  0  0  0  0  0  0  0  0  0
    5.2185   -0.9829    0.0000 C   0  0  0  0  0  0  0  0  0  0  0  0
    5.7177    0.4316    0.0000 C   0  0  0  0  0  0  0  0  0  0  0  0
    7.1923    0.7065    0.0000 O   0  0  0  0  0  0  0  0  0  0  0  0
    4.7424    1.5712    0.0000 C   0  0  0  0  0  0  0  0  0  0  0  0
    5.2416    2.9857    0.0000 O   0  0  0  0  0  0  0  0  0  0  0  0
    3.2678    1.2963    0.0000 C   0  0  0  0  0  0  0  0  0  0  0  0
    2.7685   -0.1182    0.0000 C   0  0  0  0  0  0  0  0  0  0  0  0
   -1.6552   -0.9428    0.0000 C   0  0  0  0  0  0  0  0  0  0  0  0
   -3.1298   -1.2177    0.0000 C   0  0  0  0  0  0  0  0  0  0  0  0
   -3.6291   -2.6322    0.0000 O   0  0  0  0  0  0  0  0  0  0  0  0
   -5.1037   -2.9071    0.0000 C   0  0  0  0  0  0  0  0  0  0  0  0
   -4.1052   -0.0781    0.0000 C   0  0  0  0  0  0  0  0  0  0  0  0
   -5.5798   -0.3530    0.0000 O   0  0  0  0  0  0  0  0  0  0  0  0
   -6.5552    0.7866    0.0000 C   0  0  0  0  0  0  0  0  0  0  0  0
  1  2  1  0
  2  3  1  0
  3  4  2  0
  3 23  1  0
  4  5  1  0
  5  6  1  0
  5 19  2  0
  6  7  1  0
  7  8  1  0
  7 18  1  0
  8  9  1  0
  9 10  1  0
 10 11  1  0
 11 12  2  0
 11 18  1  0
 12 13  1  0
 13 14  1  0
 13 15  2  0
 15 16  1  0
 15 17  1  0
 17 18  2  0
 19 20  1  0
 20 21  1  0
 20 23  2  0
 21 22  1  0
 23 24  1  0
 24 25  1  0
M  CHG  1   8   1
M  END
>  <s_m_entry_id>  (109) 
200

>  <s_m_entry_name>  (109) 
SIM_Broad_MProResults_ligprep.200

>  <Mol2_MolInfo_Name>  (109) 
4021

>  <Mol2_MolInfo_Type>  (109) 
SMALL

>  <Mol2_MolInfo_Charge>  (109) 
USER_CHARGES

>  <Mol2_Substructures>  (109) 
     1 ****        1 GROUP             0       ****    0 ROOT    

>  <Name>  (109) 
4021

>  <s_m_Source_Path>  (109) 
/home/jgilaber/drug_learning/drug_learning/datasets/SARS2

>  <s_m_Source_File>  (109) 
SIM_Broad_MProResults_ligprep.sd

>  <i_m_Source_File_Index>  (109) 
200

>  <s_m_subgroup_title>  (109) 
SIM_Broad_MProResults_ligprep

>  <s_m_subgroupid>  (109) 
SIM_Broad_MProResults_ligprep

>  <b_m_subgroup_collapsed>  (109) 
0

$$$$
10231
     RDKit          2D

 32 35  0  0  1  0  0  0  0  0999 V2000
   -4.0443    3.6397    0.0000 C   0  0  0  0  0  0  0  0  0  0  0  0
   -2.7166    2.9417    0.0000 N   0  0  0  0  0  0  0  0  0  0  0  0
   -1.4482    3.7425    0.0000 C   0  0  0  0  0  0  0  0  0  0  0  0
   -2.6572    1.4429    0.0000 C   0  0  0  0  0  0  0  0  0  0  0  0
   -1.3295    0.7449    0.0000 C   0  0  0  0  0  0  0  0  0  0  0  0
   -0.0612    1.5457    0.0000 C   0  0  0  0  0  0  0  0  0  0  0  0
   -0.1205    3.0445    0.0000 O   0  0  0  0  0  0  0  0  0  0  0  0
    1.2665    0.8476    0.0000 C   0  0  0  0  0  0  0  0  0  0  0  0
    1.3258   -0.6512    0.0000 C   0  0  0  0  0  0  0  0  0  0  0  0
    2.6535   -1.3492    0.0000 C   0  0  0  0  0  0  0  0  0  0  0  0
    2.7129   -2.8480    0.0000 O   0  0  0  0  0  0  0  0  0  0  0  0
    3.9219   -0.5484    0.0000 C   0  0  0  0  0  0  0  0  0  0  0  0
    5.2496   -1.2464    0.0000 C   0  0  0  0  0  0  0  0  0  0  0  0
    5.3089   -2.7452    0.0000 O   0  0  0  0  0  0  0  0  0  0  0  0
    6.5179   -0.4456    0.0000 C   0  0  0  0  0  0  0  0  0  0  0  0
    6.4586    1.0532    0.0000 C   0  0  0  0  0  0  0  0  0  0  0  0
    5.1309    1.7512    0.0000 C   0  0  0  0  0  0  0  0  0  0  0  0
    3.8625    0.9504    0.0000 C   0  0  0  0  0  0  0  0  0  0  0  0
    2.5348    1.6485    0.0000 C   0  0  0  0  0  0  0  0  0  0  0  0
    2.4755    3.1473    0.0000 C   0  0  0  0  0  0  0  0  0  0  0  0
    0.0575   -1.4520    0.0000 C   0  0  0  0  0  0  0  0  0  0  0  0
    0.1168   -2.9508    0.0000 O   0  0  0  0  0  0  0  0  0  0  0  0
   -1.2702   -0.7540    0.0000 C   0  0  0  0  0  0  0  0  0  0  0  0
   -1.2109   -2.2528    0.0000 O   0  0  0  0  0  0  0  0  0  0  0  0
   -2.5386   -1.5548    0.0000 C   0  0  0  0  0  0  0  0  0  0  0  0
   -2.4792   -3.0536    0.0000 O   0  0  0  0  0  0  0  0  0  0  0  0
   -3.8662   -0.8568    0.0000 C   0  0  0  0  0  0  0  0  0  0  0  0
   -5.1346   -1.6576    0.0000 C   0  0  0  0  0  0  0  0  0  0  0  0
   -5.0753   -3.1564    0.0000 O   0  0  0  0  0  0  0  0  0  0  0  0
   -6.4623   -0.9595    0.0000 N   0  0  0  0  0  0  0  0  0  0  0  0
   -3.9256    0.6421    0.0000 C   0  0  0  0  0  0  0  0  0  0  0  0
   -5.2533    1.3401    0.0000 O   0  0  0  0  0  0  0  0  0  0  0  0
  1  2  1  0
  2  3  1  0
  2  4  1  0
  4  5  1  0
  4 31  1  0
  5  6  1  0
  5 23  1  0
  6  7  1  0
  6  8  1  0
  8  9  1  0
  8 19  1  0
  9 10  2  0
  9 21  1  0
 10 11  1  0
 10 12  1  0
 12 13  2  0
 12 18  1  0
 13 14  1  0
 13 15  1  0
 15 16  2  0
 16 17  1  0
 17 18  2  0
 18 19  1  0
 19 20  2  0
 21 22  2  0
 21 23  1  0
 23 24  1  0
 23 25  1  0
 25 26  1  0
 25 27  2  0
 27 28  1  0
 27 31  1  0
 28 29  2  0
 28 30  1  0
 31 32  2  0
M  CHG  3   2   1  11  -1  26  -1
M  END
>  <s_m_entry_id>  (110) 
44

>  <s_m_entry_name>  (110) 
SIM_Broad_MProResults_ligprep.44

>  <Mol2_MolInfo_Name>  (110) 
10231

>  <Mol2_MolInfo_Type>  (110) 
SMALL

>  <Mol2_MolInfo_Charge>  (110) 
USER_CHARGES

>  <Mol2_Substructures>  (110) 
     1 UNK         1 GROUP             0       ****    0 ROOT    

>  <Name>  (110) 
10231

>  <s_m_Source_Path>  (110) 
/home/jgilaber/drug_learning/drug_learning/datasets/SARS2

>  <s_m_Source_File>  (110) 
SIM_Broad_MProResults_ligprep.sd

>  <i_m_Source_File_Index>  (110) 
44

>  <s_m_subgroup_title>  (110) 
SIM_Broad_MProResults_ligprep

>  <s_m_subgroupid>  (110) 
SIM_Broad_MProResults_ligprep

>  <b_m_subgroup_collapsed>  (110) 
0

$$$$
12541
     RDKit          2D

 42 47  0  0  1  0  0  0  0  0999 V2000
   -7.6687    3.2975    0.0000 C   0  0  0  0  0  0  0  0  0  0  0  0
   -8.7710    2.2802    0.0000 C   0  0  0  0  0  0  0  0  0  0  0  0
   -8.4412    0.8169    0.0000 N   0  0  0  0  0  0  0  0  0  0  0  0
   -9.4311   -0.3101    0.0000 C   0  0  0  0  0  0  0  0  0  0  0  0
   -8.6653   -1.5998    0.0000 N   0  0  0  0  0  0  0  0  0  0  0  0
   -7.2020   -1.2700    0.0000 C   0  0  0  0  0  0  0  0  0  0  0  0
   -5.9777   -2.1367    0.0000 C   0  0  0  0  0  0  0  0  0  0  0  0
   -4.6150   -1.5098    0.0000 N   0  0  0  0  0  0  0  0  0  0  0  0
   -4.4765   -0.0162    0.0000 C   0  0  0  0  0  0  0  0  0  0  0  0
   -3.1138    0.6107    0.0000 O   0  0  0  0  0  0  0  0  0  0  0  0
   -1.8895   -0.2561    0.0000 C   0  0  0  0  0  0  0  0  0  0  0  0
   -2.0280   -1.7497    0.0000 C   0  0  0  0  0  0  0  0  0  0  0  0
   -0.8038   -2.6164    0.0000 C   0  0  0  0  0  0  0  0  0  0  0  0
    0.5590   -1.9895    0.0000 C   0  0  0  0  0  0  0  0  0  0  0  0
    0.6974   -0.4959    0.0000 C   0  0  0  0  0  0  0  0  0  0  0  0
    2.0602    0.1310    0.0000 N   0  0  0  0  0  0  0  0  0  0  0  0
    3.2844   -0.7358    0.0000 C   0  0  0  0  0  0  0  0  0  0  0  0
    3.1460   -2.2294    0.0000 O   0  0  0  0  0  0  0  0  0  0  0  0
    4.6472   -0.1089    0.0000 C   0  0  0  0  0  0  0  0  0  0  0  0
    5.8714   -0.9756    0.0000 C   0  0  0  0  0  0  0  0  0  0  0  0
    7.2341   -0.3487    0.0000 C   0  0  0  0  0  0  0  0  0  0  0  0
    7.3726    1.1449    0.0000 C   0  0  0  0  0  0  0  0  0  0  0  0
    8.7353    1.7717    0.0000 O   0  0  0  0  0  0  0  0  0  0  0  0
    9.9596    0.9050    0.0000 C   0  0  0  0  0  0  0  0  0  0  0  0
   11.3223    1.5319    0.0000 C   0  0  0  0  0  0  0  0  0  0  0  0
   12.5466    0.6652    0.0000 N   0  0  0  0  0  0  0  0  0  0  0  0
   12.4081   -0.8284    0.0000 C   0  0  0  0  0  0  0  0  0  0  0  0
   13.6324   -1.6951    0.0000 C   0  0  0  0  0  0  0  0  0  0  0  0
   14.9951   -1.0683    0.0000 O   0  0  0  0  0  0  0  0  0  0  0  0
   15.1336    0.4253    0.0000 C   0  0  0  0  0  0  0  0  0  0  0  0
   13.9093    1.2920    0.0000 C   0  0  0  0  0  0  0  0  0  0  0  0
    6.1484    2.0116    0.0000 C   0  0  0  0  0  0  0  0  0  0  0  0
    4.7856    1.3847    0.0000 C   0  0  0  0  0  0  0  0  0  0  0  0
   -0.5268    0.3708    0.0000 C   0  0  0  0  0  0  0  0  0  0  0  0
   -5.7008    0.8505    0.0000 C   0  0  0  0  0  0  0  0  0  0  0  0
   -7.0635    0.2236    0.0000 C   0  0  0  0  0  0  0  0  0  0  0  0
  -10.9247   -0.1716    0.0000 C   0  0  0  0  0  0  0  0  0  0  0  0
  -11.9147   -1.2985    0.0000 N   0  0  0  0  0  0  0  0  0  0  0  0
  -13.2924   -0.7053    0.0000 O   0  0  0  0  0  0  0  0  0  0  0  0
  -13.1539    0.7883    0.0000 N   0  0  0  0  0  0  0  0  0  0  0  0
  -11.6906    1.1181    0.0000 C   0  0  0  0  0  0  0  0  0  0  0  0
  -11.0974    2.4958    0.0000 N   0  0  0  0  0  0  0  0  0  0  0  0
  1  2  1  0
  2  3  1  0
  3  4  1  0
  3 36  1  0
  4  5  2  0
  4 37  1  0
  5  6  1  0
  6  7  1  0
  6 36  2  0
  7  8  2  0
  8  9  1  0
  9 10  1  0
  9 35  2  0
 10 11  1  0
 11 12  2  0
 11 34  1  0
 12 13  1  0
 13 14  2  0
 14 15  1  0
 15 16  1  0
 15 34  2  0
 16 17  1  0
 17 18  2  0
 17 19  1  0
 19 20  2  0
 19 33  1  0
 20 21  1  0
 21 22  2  0
 22 23  1  0
 22 32  1  0
 23 24  1  0
 24 25  1  0
 25 26  1  0
 26 27  1  0
 26 31  1  0
 27 28  1  0
 28 29  1  0
 29 30  1  0
 30 31  1  0
 32 33  2  0
 35 36  1  0
 37 38  2  0
 37 41  1  0
 38 39  1  0
 39 40  1  0
 40 41  2  0
 41 42  1  0
M  END
>  <s_m_entry_id>  (111) 
162

>  <s_m_entry_name>  (111) 
SIM_Broad_MProResults_ligprep.162

>  <Mol2_MolInfo_Name>  (111) 
12541

>  <Mol2_MolInfo_Type>  (111) 
SMALL

>  <Mol2_MolInfo_Charge>  (111) 
USER_CHARGES

>  <Mol2_Substructures>  (111) 
     1 UNK         1 GROUP             0       ****    0 ROOT    

>  <Name>  (111) 
12541

>  <s_m_Source_Path>  (111) 
/home/jgilaber/drug_learning/drug_learning/datasets/SARS2

>  <s_m_Source_File>  (111) 
SIM_Broad_MProResults_ligprep.sd

>  <i_m_Source_File_Index>  (111) 
162

>  <s_m_subgroup_title>  (111) 
SIM_Broad_MProResults_ligprep

>  <s_m_subgroupid>  (111) 
SIM_Broad_MProResults_ligprep

>  <b_m_subgroup_collapsed>  (111) 
0

$$$$
11520
     RDKit          2D

 24 25  0  0  1  0  0  0  0  0999 V2000
   -6.0214    3.2626    0.0000 C   0  0  0  0  0  0  0  0  0  0  0  0
   -5.1232    2.0613    0.0000 C   0  0  0  0  0  0  0  0  0  0  0  0
   -3.6337    2.2385    0.0000 C   0  0  0  0  0  0  0  0  0  0  0  0
   -2.7355    1.0372    0.0000 C   0  0  0  0  0  0  0  0  0  0  0  0
   -1.2460    1.2145    0.0000 N   0  0  0  0  0  0  0  0  0  0  0  0
   -0.3477    0.0131    0.0000 C   0  0  0  0  0  0  0  0  0  0  0  0
   -0.9390   -1.3654    0.0000 O   0  0  0  0  0  0  0  0  0  0  0  0
    1.1418    0.1904    0.0000 C   0  0  0  0  0  0  0  0  0  0  0  0
    2.0400   -1.0110    0.0000 C   0  0  0  0  0  0  0  0  0  0  0  0
    3.5295   -0.8337    0.0000 C   0  0  0  0  0  0  0  0  0  0  0  0
    4.4277   -2.0350    0.0000 C   0  0  0  0  0  0  0  0  0  0  0  0
    5.9172   -1.8578    0.0000 C   0  0  0  0  0  0  0  0  0  0  0  0
    6.5085   -0.4793    0.0000 C   0  0  0  0  0  0  0  0  0  0  0  0
    5.6102    0.7221    0.0000 C   0  0  0  0  0  0  0  0  0  0  0  0
    6.2015    2.1006    0.0000 Br  0  0  0  0  0  0  0  0  0  0  0  0
    4.1207    0.5448    0.0000 N   0  0  0  0  0  0  0  0  0  0  0  0
    1.7330    1.5689    0.0000 C   0  0  0  0  0  0  0  0  0  0  0  0
    2.3243    2.9475    0.0000 N   0  0  0  0  0  0  0  0  0  0  0  0
   -3.3267   -0.3413    0.0000 C   0  0  0  0  0  0  0  0  0  0  0  0
   -4.8162   -0.5186    0.0000 C   0  0  0  0  0  0  0  0  0  0  0  0
   -5.4075   -1.8971    0.0000 C   0  0  0  0  0  0  0  0  0  0  0  0
   -4.5092   -3.0984    0.0000 C   0  0  0  0  0  0  0  0  0  0  0  0
   -3.0197   -2.9212    0.0000 C   0  0  0  0  0  0  0  0  0  0  0  0
   -2.4285   -1.5427    0.0000 C   0  0  0  0  0  0  0  0  0  0  0  0
  1  2  1  0
  2  3  1  0
  3  4  1  0
  4  5  1  0
  4 19  1  0
  5  6  1  0
  6  7  2  0
  6  8  1  0
  8  9  2  0
  8 17  1  0
  9 10  1  0
 10 11  2  0
 10 16  1  0
 11 12  1  0
 12 13  2  0
 13 14  1  0
 14 15  1  0
 14 16  2  0
 17 18  3  0
 19 20  2  0
 19 24  1  0
 20 21  1  0
 21 22  2  0
 22 23  1  0
 23 24  2  0
M  END
>  <s_m_entry_id>  (112) 
131

>  <s_m_entry_name>  (112) 
SIM_Broad_MProResults_ligprep.131

>  <Mol2_MolInfo_Name>  (112) 
11520

>  <Mol2_MolInfo_Type>  (112) 
SMALL

>  <Mol2_MolInfo_Charge>  (112) 
USER_CHARGES

>  <Mol2_Substructures>  (112) 
     1 UNK         1 GROUP             0       ****    0 ROOT    

>  <Name>  (112) 
11520

>  <s_m_Source_Path>  (112) 
/home/jgilaber/drug_learning/drug_learning/datasets/SARS2

>  <s_m_Source_File>  (112) 
SIM_Broad_MProResults_ligprep.sd

>  <i_m_Source_File_Index>  (112) 
131

>  <s_m_subgroup_title>  (112) 
SIM_Broad_MProResults_ligprep

>  <s_m_subgroupid>  (112) 
SIM_Broad_MProResults_ligprep

>  <b_m_subgroup_collapsed>  (112) 
0

$$$$
11188
     RDKit          2D

 24 27  0  0  1  0  0  0  0  0999 V2000
   -1.6803   -3.5774    0.0000 C   0  0  0  0  0  0  0  0  0  0  0  0
   -0.4292   -2.7499    0.0000 C   0  0  0  0  0  0  0  0  0  0  0  0
   -0.5203   -1.2527    0.0000 N   0  0  0  0  0  0  0  0  0  0  0  0
    0.7308   -0.4251    0.0000 C   0  0  0  0  0  0  0  0  0  0  0  0
    2.0730   -1.0949    0.0000 C   0  0  0  0  0  0  0  0  0  0  0  0
    2.1641   -2.5921    0.0000 C   0  0  0  0  0  0  0  0  0  0  0  0
    3.5063   -3.2618    0.0000 C   0  0  0  0  0  0  0  0  0  0  0  0
    4.7574   -2.4343    0.0000 C   0  0  0  0  0  0  0  0  0  0  0  0
    4.6663   -0.9371    0.0000 C   0  0  0  0  0  0  0  0  0  0  0  0
    3.3241   -0.2673    0.0000 C   0  0  0  0  0  0  0  0  0  0  0  0
    0.6397    1.0721    0.0000 C   0  0  0  0  0  0  0  0  0  0  0  0
    1.8908    1.8996    0.0000 C   0  0  0  0  0  0  0  0  0  0  0  0
    1.7997    3.3968    0.0000 C   0  0  0  0  0  0  0  0  0  0  0  0
    3.0508    4.2243    0.0000 N   0  0  0  0  0  0  0  0  0  0  0  0
    0.4575    4.0665    0.0000 C   0  0  0  0  0  0  0  0  0  0  0  0
   -0.7936    3.2390    0.0000 C   0  0  0  0  0  0  0  0  0  0  0  0
   -0.7025    1.7418    0.0000 C   0  0  0  0  0  0  0  0  0  0  0  0
   -1.9536    0.9143    0.0000 C   0  0  0  0  0  0  0  0  0  0  0  0
   -3.2958    1.5840    0.0000 C   0  0  0  0  0  0  0  0  0  0  0  0
   -4.5468    0.7565    0.0000 C   0  0  0  0  0  0  0  0  0  0  0  0
   -4.4557   -0.7407    0.0000 C   0  0  0  0  0  0  0  0  0  0  0  0
   -5.7068   -1.5683    0.0000 N   0  0  0  0  0  0  0  0  0  0  0  0
   -3.1135   -1.4105    0.0000 C   0  0  0  0  0  0  0  0  0  0  0  0
   -1.8625   -0.5829    0.0000 C   0  0  0  0  0  0  0  0  0  0  0  0
  1  2  1  0
  2  3  1  0
  3  4  1  0
  3 24  1  0
  4  5  1  0
  4 11  2  0
  5  6  2  0
  5 10  1  0
  6  7  1  0
  7  8  2  0
  8  9  1  0
  9 10  2  0
 11 12  1  0
 11 17  1  0
 12 13  2  0
 13 14  1  0
 13 15  1  0
 15 16  1  0
 16 17  2  0
 17 18  1  0
 18 19  1  0
 18 24  2  0
 19 20  2  0
 20 21  1  0
 21 22  1  0
 21 23  2  0
 23 24  1  0
M  END
>  <s_m_entry_id>  (113) 
106

>  <s_m_entry_name>  (113) 
SIM_Broad_MProResults_ligprep.106

>  <Mol2_MolInfo_Name>  (113) 
11188

>  <Mol2_MolInfo_Type>  (113) 
SMALL

>  <Mol2_MolInfo_Charge>  (113) 
USER_CHARGES

>  <Mol2_Substructures>  (113) 
     1 UNK         1 GROUP             0       ****    0 ROOT    

>  <Name>  (113) 
11188

>  <s_m_Source_Path>  (113) 
/home/jgilaber/drug_learning/drug_learning/datasets/SARS2

>  <s_m_Source_File>  (113) 
SIM_Broad_MProResults_ligprep.sd

>  <i_m_Source_File_Index>  (113) 
106

>  <s_m_subgroup_title>  (113) 
SIM_Broad_MProResults_ligprep

>  <s_m_subgroupid>  (113) 
SIM_Broad_MProResults_ligprep

>  <b_m_subgroup_collapsed>  (113) 
0

$$$$
10877
     RDKit          2D

 31 34  0  0  1  0  0  0  0  0999 V2000
   -5.4719    0.9782    0.0000 C   0  0  0  0  0  0  0  0  0  0  0  0
   -4.4096   -0.0807    0.0000 C   0  0  0  0  0  0  0  0  0  0  0  0
   -4.7955   -1.5302    0.0000 N   0  0  0  0  0  0  0  0  0  0  0  0
   -5.1814   -2.9797    0.0000 C   0  0  0  0  0  0  0  0  0  0  0  0
   -6.2450   -1.1443    0.0000 C   0  0  0  0  0  0  0  0  0  0  0  0
   -6.6355    0.3040    0.0000 C   0  0  0  0  0  0  0  0  0  0  0  0
   -3.3460   -1.9162    0.0000 C   0  0  0  0  0  0  0  0  0  0  0  0
   -2.2870   -0.8538    0.0000 C   0  0  0  0  0  0  0  0  0  0  0  0
   -0.8375   -1.2398    0.0000 C   0  0  0  0  0  0  0  0  0  0  0  0
    0.2214   -0.1774    0.0000 N   0  0  0  0  0  0  0  0  0  0  0  0
    1.6710   -0.5634    0.0000 C   0  0  0  0  0  0  0  0  0  0  0  0
    2.0615   -2.0116    0.0000 C   0  0  0  0  0  0  0  0  0  0  0  0
    1.0025   -3.0740    0.0000 C   0  0  0  0  0  0  0  0  0  0  0  0
    1.3930   -4.5223    0.0000 C   0  0  0  0  0  0  0  0  0  0  0  0
    2.8425   -4.9082    0.0000 C   0  0  0  0  0  0  0  0  0  0  0  0
    3.9015   -3.8459    0.0000 C   0  0  0  0  0  0  0  0  0  0  0  0
    3.5110   -2.3976    0.0000 C   0  0  0  0  0  0  0  0  0  0  0  0
    2.7299    0.4990    0.0000 C   0  0  0  0  0  0  0  0  0  0  0  0
    4.1794    0.1130    0.0000 C   0  0  0  0  0  0  0  0  0  0  0  0
    5.2384    1.1754    0.0000 C   0  0  0  0  0  0  0  0  0  0  0  0
    6.6879    0.7894    0.0000 N   0  0  0  0  0  0  0  0  0  0  0  0
    4.8479    2.6236    0.0000 C   0  0  0  0  0  0  0  0  0  0  0  0
    3.3984    3.0096    0.0000 C   0  0  0  0  0  0  0  0  0  0  0  0
    2.3394    1.9472    0.0000 C   0  0  0  0  0  0  0  0  0  0  0  0
    0.8899    2.3332    0.0000 C   0  0  0  0  0  0  0  0  0  0  0  0
    0.4994    3.7814    0.0000 C   0  0  0  0  0  0  0  0  0  0  0  0
   -0.9501    4.1674    0.0000 C   0  0  0  0  0  0  0  0  0  0  0  0
   -2.0091    3.1050    0.0000 C   0  0  0  0  0  0  0  0  0  0  0  0
   -3.4586    3.4910    0.0000 N   0  0  0  0  0  0  0  0  0  0  0  0
   -1.6186    1.6568    0.0000 C   0  0  0  0  0  0  0  0  0  0  0  0
   -0.1691    1.2708    0.0000 C   0  0  0  0  0  0  0  0  0  0  0  0
  1  2  1  0
  2  3  1  0
  3  4  1  0
  3  5  1  0
  3  7  1  0
  5  6  1  0
  7  8  1  0
  8  9  1  0
  9 10  1  0
 10 11  1  0
 10 31  1  0
 11 12  1  0
 11 18  2  0
 12 13  2  0
 12 17  1  0
 13 14  1  0
 14 15  2  0
 15 16  1  0
 16 17  2  0
 18 19  1  0
 18 24  1  0
 19 20  2  0
 20 21  1  0
 20 22  1  0
 22 23  1  0
 23 24  2  0
 24 25  1  0
 25 26  1  0
 25 31  2  0
 26 27  2  0
 27 28  1  0
 28 29  1  0
 28 30  2  0
 30 31  1  0
M  CHG  1   3   1
M  END
>  <s_m_entry_id>  (114) 
96

>  <s_m_entry_name>  (114) 
SIM_Broad_MProResults_ligprep.96

>  <Mol2_MolInfo_Name>  (114) 
10877

>  <Mol2_MolInfo_Type>  (114) 
SMALL

>  <Mol2_MolInfo_Charge>  (114) 
USER_CHARGES

>  <Mol2_Substructures>  (114) 
     1 UNK         1 GROUP             0       ****    0 ROOT    

>  <Name>  (114) 
10877

>  <s_m_Source_Path>  (114) 
/home/jgilaber/drug_learning/drug_learning/datasets/SARS2

>  <s_m_Source_File>  (114) 
SIM_Broad_MProResults_ligprep.sd

>  <i_m_Source_File_Index>  (114) 
96

>  <s_m_subgroup_title>  (114) 
SIM_Broad_MProResults_ligprep

>  <s_m_subgroupid>  (114) 
SIM_Broad_MProResults_ligprep

>  <b_m_subgroup_collapsed>  (114) 
0

$$$$
10502
     RDKit          2D

 32 36  0  0  1  0  0  0  0  0999 V2000
    8.2609   -4.0745    0.0000 C   0  0  0  0  0  0  0  0  0  0  0  0
    7.8185   -2.6412    0.0000 O   0  0  0  0  0  0  0  0  0  0  0  0
    6.3560   -2.3078    0.0000 C   0  0  0  0  0  0  0  0  0  0  0  0
    5.3360   -3.4076    0.0000 C   0  0  0  0  0  0  0  0  0  0  0  0
    3.8735   -3.0741    0.0000 C   0  0  0  0  0  0  0  0  0  0  0  0
    3.4311   -1.6408    0.0000 C   0  0  0  0  0  0  0  0  0  0  0  0
    1.9686   -1.3074    0.0000 C   0  0  0  0  0  0  0  0  0  0  0  0
    1.5262    0.1259    0.0000 C   0  0  0  0  0  0  0  0  0  0  0  0
    2.5462    1.2257    0.0000 C   0  0  0  0  0  0  0  0  0  0  0  0
    4.0087    0.8922    0.0000 C   0  0  0  0  0  0  0  0  0  0  0  0
    4.4511   -0.5410    0.0000 C   0  0  0  0  0  0  0  0  0  0  0  0
    5.9136   -0.8745    0.0000 C   0  0  0  0  0  0  0  0  0  0  0  0
    0.0637    0.4593    0.0000 C   0  0  0  0  0  0  0  0  0  0  0  0
   -1.0657   -0.5278    0.0000 N   0  0  0  0  0  0  0  0  0  0  0  0
   -2.3535    0.2412    0.0000 C   0  0  0  0  0  0  0  0  0  0  0  0
   -2.0201    1.7037    0.0000 N   0  0  0  0  0  0  0  0  0  0  0  0
   -0.5261    1.8385    0.0000 C   0  0  0  0  0  0  0  0  0  0  0  0
    0.2429    3.1263    0.0000 C   0  0  0  0  0  0  0  0  0  0  0  0
    1.7428    3.1042    0.0000 C   0  0  0  0  0  0  0  0  0  0  0  0
    2.5118    4.3921    0.0000 C   0  0  0  0  0  0  0  0  0  0  0  0
    1.7811    5.7020    0.0000 N   0  0  0  0  0  0  0  0  0  0  0  0
    0.2812    5.7241    0.0000 C   0  0  0  0  0  0  0  0  0  0  0  0
   -0.4878    4.4363    0.0000 C   0  0  0  0  0  0  0  0  0  0  0  0
   -3.7327   -0.3486    0.0000 C   0  0  0  0  0  0  0  0  0  0  0  0
   -4.9331    0.5509    0.0000 C   0  0  0  0  0  0  0  0  0  0  0  0
   -6.3122   -0.0390    0.0000 C   0  0  0  0  0  0  0  0  0  0  0  0
   -6.4910   -1.5283    0.0000 C   0  0  0  0  0  0  0  0  0  0  0  0
   -5.2906   -2.4278    0.0000 C   0  0  0  0  0  0  0  0  0  0  0  0
   -3.9114   -1.8379    0.0000 C   0  0  0  0  0  0  0  0  0  0  0  0
   -7.8702   -2.1181    0.0000 S   0  0  0  0  0  0  0  0  0  0  0  0
   -8.0489   -3.6075    0.0000 O   0  0  0  0  0  0  0  0  0  0  0  0
   -9.0706   -1.2187    0.0000 C   0  0  0  0  0  0  0  0  0  0  0  0
  1  2  1  0
  2  3  1  0
  3  4  2  0
  3 12  1  0
  4  5  1  0
  5  6  2  0
  6  7  1  0
  6 11  1  0
  7  8  2  0
  8  9  1  0
  8 13  1  0
  9 10  2  0
 10 11  1  0
 11 12  2  0
 13 14  1  0
 13 17  2  0
 14 15  2  0
 15 16  1  0
 15 24  1  0
 16 17  1  0
 17 18  1  0
 18 19  2  0
 18 23  1  0
 19 20  1  0
 20 21  2  0
 21 22  1  0
 22 23  2  0
 24 25  2  0
 24 29  1  0
 25 26  1  0
 26 27  2  0
 27 28  1  0
 27 30  1  0
 28 29  2  0
 30 31  2  0
 30 32  1  0
M  END
>  <s_m_entry_id>  (115) 
74

>  <s_m_entry_name>  (115) 
SIM_Broad_MProResults_ligprep.74

>  <Mol2_MolInfo_Name>  (115) 
10502

>  <Mol2_MolInfo_Type>  (115) 
SMALL

>  <Mol2_MolInfo_Charge>  (115) 
USER_CHARGES

>  <Mol2_Substructures>  (115) 
     1 UNK         1 GROUP             0       ****    0 ROOT    

>  <Name>  (115) 
10502

>  <s_m_Source_Path>  (115) 
/home/jgilaber/drug_learning/drug_learning/datasets/SARS2

>  <s_m_Source_File>  (115) 
SIM_Broad_MProResults_ligprep.sd

>  <i_m_Source_File_Index>  (115) 
74

>  <s_m_subgroup_title>  (115) 
SIM_Broad_MProResults_ligprep

>  <s_m_subgroupid>  (115) 
SIM_Broad_MProResults_ligprep

>  <b_m_subgroup_collapsed>  (115) 
0

$$$$
8754
     RDKit          2D

 17 18  0  0  1  0  0  0  0  0999 V2000
   -6.0499   -0.2226    0.0000 C   0  0  0  0  0  0  0  0  0  0  0  0
   -4.8491   -1.1214    0.0000 S   0  0  0  0  0  0  0  0  0  0  0  0
   -3.4702   -0.5309    0.0000 C   0  0  0  0  0  0  0  0  0  0  0  0
   -3.2922    0.9585    0.0000 C   0  0  0  0  0  0  0  0  0  0  0  0
   -1.9133    1.5490    0.0000 C   0  0  0  0  0  0  0  0  0  0  0  0
   -0.7125    0.6501    0.0000 C   0  0  0  0  0  0  0  0  0  0  0  0
   -0.8905   -0.8393    0.0000 C   0  0  0  0  0  0  0  0  0  0  0  0
   -2.2694   -1.4298    0.0000 C   0  0  0  0  0  0  0  0  0  0  0  0
    0.6664    1.2407    0.0000 C   0  0  0  0  0  0  0  0  0  0  0  0
    0.8444    2.7301    0.0000 O   0  0  0  0  0  0  0  0  0  0  0  0
    1.8672    0.3418    0.0000 C   0  0  0  0  0  0  0  0  0  0  0  0
    3.3003    0.7849    0.0000 C   0  0  0  0  0  0  0  0  0  0  0  0
    3.7841    2.2048    0.0000 C   0  0  0  0  0  0  0  0  0  0  0  0
    4.1646   -0.4410    0.0000 N   0  0  0  0  0  0  0  0  0  0  0  0
    3.2657   -1.6419    0.0000 C   0  0  0  0  0  0  0  0  0  0  0  0
    3.7089   -3.0749    0.0000 O   0  0  0  0  0  0  0  0  0  0  0  0
    1.8459   -1.1581    0.0000 N   0  0  0  0  0  0  0  0  0  0  0  0
  1  2  1  0
  2  3  1  0
  3  4  2  0
  3  8  1  0
  4  5  1  0
  5  6  2  0
  6  7  1  0
  6  9  1  0
  7  8  2  0
  9 10  2  0
  9 11  1  0
 11 12  2  0
 11 17  1  0
 12 13  1  0
 12 14  1  0
 14 15  1  0
 15 16  2  0
 15 17  1  0
M  END
>  <s_m_entry_id>  (116) 
234

>  <s_m_entry_name>  (116) 
SIM_Broad_MProResults_ligprep.234

>  <Mol2_MolInfo_Name>  (116) 
8754

>  <Mol2_MolInfo_Type>  (116) 
SMALL

>  <Mol2_MolInfo_Charge>  (116) 
USER_CHARGES

>  <Mol2_Substructures>  (116) 
     1 ****        1 GROUP             0       ****    0 ROOT    

>  <Name>  (116) 
8754

>  <s_m_Source_Path>  (116) 
/home/jgilaber/drug_learning/drug_learning/datasets/SARS2

>  <s_m_Source_File>  (116) 
SIM_Broad_MProResults_ligprep.sd

>  <i_m_Source_File_Index>  (116) 
234

>  <s_m_subgroup_title>  (116) 
SIM_Broad_MProResults_ligprep

>  <s_m_subgroupid>  (116) 
SIM_Broad_MProResults_ligprep

>  <b_m_subgroup_collapsed>  (116) 
0

$$$$
11272
     RDKit          2D

 18 20  0  0  1  0  0  0  0  0999 V2000
   -0.5827    1.6828    0.0000 O   0  0  0  0  0  0  0  0  0  0  0  0
    0.4226    0.5695    0.0000 C   0  0  0  0  0  0  0  0  0  0  0  0
    0.1128   -0.8982    0.0000 C   0  0  0  0  0  0  0  0  0  0  0  0
   -1.2567   -1.5102    0.0000 C   0  0  0  0  0  0  0  0  0  0  0  0
   -2.4715   -0.6303    0.0000 C   0  0  0  0  0  0  0  0  0  0  0  0
   -2.3168    0.8617    0.0000 C   0  0  0  0  0  0  0  0  0  0  0  0
   -3.5315    1.7417    0.0000 C   0  0  0  0  0  0  0  0  0  0  0  0
   -4.9010    1.1297    0.0000 C   0  0  0  0  0  0  0  0  0  0  0  0
   -5.0557   -0.3623    0.0000 N   0  0  0  0  0  0  0  0  0  0  0  0
   -3.8409   -1.2423    0.0000 C   0  0  0  0  0  0  0  0  0  0  0  0
    1.4129   -1.6463    0.0000 C   0  0  0  0  0  0  0  0  0  0  0  0
    1.5718   -3.1379    0.0000 O   0  0  0  0  0  0  0  0  0  0  0  0
    2.5262   -0.6411    0.0000 C   0  0  0  0  0  0  0  0  0  0  0  0
    4.0182   -0.7958    0.0000 C   0  0  0  0  0  0  0  0  0  0  0  0
    4.8981    0.4190    0.0000 C   0  0  0  0  0  0  0  0  0  0  0  0
    4.2861    1.7885    0.0000 C   0  0  0  0  0  0  0  0  0  0  0  0
    2.7941    1.9431    0.0000 C   0  0  0  0  0  0  0  0  0  0  0  0
    1.9141    0.7284    0.0000 C   0  0  0  0  0  0  0  0  0  0  0  0
  1  2  2  0
  2  3  1  0
  2 18  1  0
  3  4  2  3
  3 11  1  0
  4  5  1  0
  5  6  2  0
  5 10  1  0
  6  7  1  0
  7  8  2  0
  8  9  1  0
  9 10  2  0
 11 12  2  0
 11 13  1  0
 13 14  2  0
 13 18  1  0
 14 15  1  0
 15 16  2  0
 16 17  1  0
 17 18  2  0
M  END
>  <s_m_entry_id>  (117) 
111

>  <s_m_entry_name>  (117) 
SIM_Broad_MProResults_ligprep.111

>  <Mol2_MolInfo_Name>  (117) 
11272

>  <Mol2_MolInfo_Type>  (117) 
SMALL

>  <Mol2_MolInfo_Charge>  (117) 
USER_CHARGES

>  <Mol2_Substructures>  (117) 
     1 UNK         1 GROUP             0       ****    0 ROOT    

>  <Name>  (117) 
11272

>  <s_m_Source_Path>  (117) 
/home/jgilaber/drug_learning/drug_learning/datasets/SARS2

>  <s_m_Source_File>  (117) 
SIM_Broad_MProResults_ligprep.sd

>  <i_m_Source_File_Index>  (117) 
111

>  <s_m_subgroup_title>  (117) 
SIM_Broad_MProResults_ligprep

>  <s_m_subgroupid>  (117) 
SIM_Broad_MProResults_ligprep

>  <b_m_subgroup_collapsed>  (117) 
0

$$$$
12640
     RDKit          2D

 30 32  0  0  1  0  0  0  0  0999 V2000
    6.7002   -3.2143    0.0000 F   0  0  0  0  0  0  0  0  0  0  0  0
    5.5908   -2.2047    0.0000 C   0  0  0  0  0  0  0  0  0  0  0  0
    4.5812   -3.3140    0.0000 F   0  0  0  0  0  0  0  0  0  0  0  0
    6.6005   -1.0954    0.0000 F   0  0  0  0  0  0  0  0  0  0  0  0
    4.4815   -1.1950    0.0000 C   0  0  0  0  0  0  0  0  0  0  0  0
    3.0525   -1.6509    0.0000 C   0  0  0  0  0  0  0  0  0  0  0  0
    1.9431   -0.6412    0.0000 C   0  0  0  0  0  0  0  0  0  0  0  0
    0.5141   -1.0971    0.0000 N   0  0  0  0  0  0  0  0  0  0  0  0
   -0.5952   -0.0875    0.0000 C   0  0  0  0  0  0  0  0  0  0  0  0
   -0.2755    1.3781    0.0000 S   0  0  0  0  0  0  0  0  0  0  0  0
   -2.0243   -0.5433    0.0000 N   0  0  0  0  0  0  0  0  0  0  0  0
   -3.1336    0.4663    0.0000 C   0  0  0  0  0  0  0  0  0  0  0  0
   -2.8139    1.9318    0.0000 C   0  0  0  0  0  0  0  0  0  0  0  0
   -3.9232    2.9415    0.0000 C   0  0  0  0  0  0  0  0  0  0  0  0
   -5.3523    2.4856    0.0000 C   0  0  0  0  0  0  0  0  0  0  0  0
   -6.4616    3.4953    0.0000 Br  0  0  0  0  0  0  0  0  0  0  0  0
   -5.6720    1.0201    0.0000 C   0  0  0  0  0  0  0  0  0  0  0  0
   -4.5627    0.0104    0.0000 C   0  0  0  0  0  0  0  0  0  0  0  0
   -4.8824   -1.4551    0.0000 C   0  0  0  0  0  0  0  0  0  0  0  0
   -3.8847   -2.5752    0.0000 N   0  0  0  0  0  0  0  0  0  0  0  0
   -4.6416   -3.8702    0.0000 N   0  0  0  0  0  0  0  0  0  0  0  0
   -6.1072   -3.5505    0.0000 N   0  0  0  0  0  0  0  0  0  0  0  0
   -6.2559   -2.0579    0.0000 N   0  0  0  0  0  0  0  0  0  0  0  0
    2.2629    0.8243    0.0000 C   0  0  0  0  0  0  0  0  0  0  0  0
    3.6919    1.2802    0.0000 C   0  0  0  0  0  0  0  0  0  0  0  0
    4.8012    0.2705    0.0000 C   0  0  0  0  0  0  0  0  0  0  0  0
    4.0116    2.7457    0.0000 C   0  0  0  0  0  0  0  0  0  0  0  0
    4.3313    4.2112    0.0000 F   0  0  0  0  0  0  0  0  0  0  0  0
    5.4772    2.4260    0.0000 F   0  0  0  0  0  0  0  0  0  0  0  0
    2.5461    3.0654    0.0000 F   0  0  0  0  0  0  0  0  0  0  0  0
  1  2  1  0
  2  3  1  0
  2  4  1  0
  2  5  1  0
  5  6  2  0
  5 26  1  0
  6  7  1  0
  7  8  1  0
  7 24  2  0
  8  9  1  0
  9 10  2  0
  9 11  1  0
 11 12  1  0
 12 13  2  0
 12 18  1  0
 13 14  1  0
 14 15  2  0
 15 16  1  0
 15 17  1  0
 17 18  2  0
 18 19  1  0
 19 20  1  0
 19 23  2  0
 20 21  1  0
 21 22  2  0
 22 23  1  0
 24 25  1  0
 25 26  2  0
 25 27  1  0
 27 28  1  0
 27 29  1  0
 27 30  1  0
M  END
>  <s_m_entry_id>  (118) 
165

>  <s_m_entry_name>  (118) 
SIM_Broad_MProResults_ligprep.165

>  <Mol2_MolInfo_Name>  (118) 
12640

>  <Mol2_MolInfo_Type>  (118) 
SMALL

>  <Mol2_MolInfo_Charge>  (118) 
USER_CHARGES

>  <Mol2_Substructures>  (118) 
     1 UNK         1 GROUP             0       ****    0 ROOT    

>  <Name>  (118) 
12640

>  <s_m_Source_Path>  (118) 
/home/jgilaber/drug_learning/drug_learning/datasets/SARS2

>  <s_m_Source_File>  (118) 
SIM_Broad_MProResults_ligprep.sd

>  <i_m_Source_File_Index>  (118) 
165

>  <s_m_subgroup_title>  (118) 
SIM_Broad_MProResults_ligprep

>  <s_m_subgroupid>  (118) 
SIM_Broad_MProResults_ligprep

>  <b_m_subgroup_collapsed>  (118) 
0

$$$$
12472
     RDKit          2D

 32 35  0  0  1  0  0  0  0  0999 V2000
    7.4912   -0.5277    0.0000 O   0  0  0  0  0  0  0  0  0  0  0  0
    7.0886    0.9172    0.0000 C   0  0  0  0  0  0  0  0  0  0  0  0
    8.1386    1.9885    0.0000 O   0  0  0  0  0  0  0  0  0  0  0  0
    5.6359    1.2910    0.0000 C   0  0  0  0  0  0  0  0  0  0  0  0
    4.5859    0.2198    0.0000 C   0  0  0  0  0  0  0  0  0  0  0  0
    3.1332    0.5935    0.0000 C   0  0  0  0  0  0  0  0  0  0  0  0
    2.7305    2.0384    0.0000 C   0  0  0  0  0  0  0  0  0  0  0  0
    3.7805    3.1096    0.0000 C   0  0  0  0  0  0  0  0  0  0  0  0
    5.2332    2.7359    0.0000 C   0  0  0  0  0  0  0  0  0  0  0  0
    6.2832    3.8071    0.0000 Cl  0  0  0  0  0  0  0  0  0  0  0  0
    2.0832   -0.4777    0.0000 N   0  0  0  0  0  0  0  0  0  0  0  0
    2.3326   -1.9568    0.0000 N   0  0  0  0  0  0  0  0  0  0  0  0
    1.0030   -2.6511    0.0000 C   0  0  0  0  0  0  0  0  0  0  0  0
   -0.0682   -1.6011    0.0000 C   0  0  0  0  0  0  0  0  0  0  0  0
   -1.5474   -1.8506    0.0000 C   0  0  0  0  0  0  0  0  0  0  0  0
   -2.5029   -0.6943    0.0000 C   0  0  0  0  0  0  0  0  0  0  0  0
   -4.0000   -0.7878    0.0000 O   0  0  0  0  0  0  0  0  0  0  0  0
   -4.5515    0.6071    0.0000 C   0  0  0  0  0  0  0  0  0  0  0  0
   -3.3953    1.5627    0.0000 C   0  0  0  0  0  0  0  0  0  0  0  0
   -2.1292    0.7584    0.0000 C   0  0  0  0  0  0  0  0  0  0  0  0
   -6.0042    0.9809    0.0000 C   0  0  0  0  0  0  0  0  0  0  0  0
   -6.4069    2.4258    0.0000 C   0  0  0  0  0  0  0  0  0  0  0  0
   -7.8596    2.7995    0.0000 C   0  0  0  0  0  0  0  0  0  0  0  0
   -8.9096    1.7283    0.0000 C   0  0  0  0  0  0  0  0  0  0  0  0
   -8.5069    0.2834    0.0000 C   0  0  0  0  0  0  0  0  0  0  0  0
   -7.0543   -0.0903    0.0000 C   0  0  0  0  0  0  0  0  0  0  0  0
    0.5993   -0.2579    0.0000 C   0  0  0  0  0  0  0  0  0  0  0  0
   -0.0950    1.0718    0.0000 O   0  0  0  0  0  0  0  0  0  0  0  0
    0.7831   -4.1349    0.0000 C   0  0  0  0  0  0  0  0  0  0  0  0
    0.5633   -5.6187    0.0000 F   0  0  0  0  0  0  0  0  0  0  0  0
    2.2669   -4.3548    0.0000 F   0  0  0  0  0  0  0  0  0  0  0  0
   -0.7007   -3.9151    0.0000 F   0  0  0  0  0  0  0  0  0  0  0  0
  1  2  1  0
  2  3  2  0
  2  4  1  0
  4  5  2  0
  4  9  1  0
  5  6  1  0
  6  7  2  0
  6 11  1  0
  7  8  1  0
  8  9  2  0
  9 10  1  0
 11 12  1  0
 11 27  1  0
 12 13  2  0
 13 14  1  0
 13 29  1  0
 14 15  2  0
 14 27  1  0
 15 16  1  0
 16 17  1  0
 16 20  2  0
 17 18  1  0
 18 19  2  0
 18 21  1  0
 19 20  1  0
 21 22  2  0
 21 26  1  0
 22 23  1  0
 23 24  2  0
 24 25  1  0
 25 26  2  0
 27 28  2  0
 29 30  1  0
 29 31  1  0
 29 32  1  0
M  CHG  1   1  -1
M  END
>  <s_m_entry_id>  (119) 
160

>  <s_m_entry_name>  (119) 
SIM_Broad_MProResults_ligprep.160

>  <Mol2_MolInfo_Name>  (119) 
12472

>  <Mol2_MolInfo_Type>  (119) 
SMALL

>  <Mol2_MolInfo_Charge>  (119) 
USER_CHARGES

>  <Mol2_Substructures>  (119) 
     1 UNK         1 GROUP             0       ****    0 ROOT    

>  <Name>  (119) 
12472

>  <s_m_Source_Path>  (119) 
/home/jgilaber/drug_learning/drug_learning/datasets/SARS2

>  <s_m_Source_File>  (119) 
SIM_Broad_MProResults_ligprep.sd

>  <i_m_Source_File_Index>  (119) 
160

>  <s_m_subgroup_title>  (119) 
SIM_Broad_MProResults_ligprep

>  <s_m_subgroupid>  (119) 
SIM_Broad_MProResults_ligprep

>  <b_m_subgroup_collapsed>  (119) 
0

$$$$
7040
     RDKit          2D

 26 28  0  0  1  0  0  0  0  0999 V2000
   -7.5172   -2.1511    0.0000 C   0  0  0  0  0  0  0  0  0  0  0  0
   -6.0376   -1.9048    0.0000 O   0  0  0  0  0  0  0  0  0  0  0  0
   -5.5111   -0.5002    0.0000 C   0  0  0  0  0  0  0  0  0  0  0  0
   -6.4642    0.6580    0.0000 C   0  0  0  0  0  0  0  0  0  0  0  0
   -5.9377    2.0626    0.0000 C   0  0  0  0  0  0  0  0  0  0  0  0
   -4.4581    2.3089    0.0000 N   0  0  0  0  0  0  0  0  0  0  0  0
   -3.5049    1.1507    0.0000 C   0  0  0  0  0  0  0  0  0  0  0  0
   -2.0253    1.3970    0.0000 C   0  0  0  0  0  0  0  0  0  0  0  0
   -1.0722    0.2388    0.0000 S   0  0  0  0  0  0  0  0  0  0  0  0
   -1.5987   -1.1658    0.0000 O   0  0  0  0  0  0  0  0  0  0  0  0
    0.4075    0.4851    0.0000 C   0  0  0  0  0  0  0  0  0  0  0  0
    1.4765   -0.5672    0.0000 N   0  0  0  0  0  0  0  0  0  0  0  0
    2.8076    0.1243    0.0000 C   0  0  0  0  0  0  0  0  0  0  0  0
    4.2121   -0.4022    0.0000 C   0  0  0  0  0  0  0  0  0  0  0  0
    5.3704    0.5509    0.0000 C   0  0  0  0  0  0  0  0  0  0  0  0
    6.7749    0.0244    0.0000 O   0  0  0  0  0  0  0  0  0  0  0  0
    7.0212   -1.4552    0.0000 C   0  0  0  0  0  0  0  0  0  0  0  0
    8.4258   -1.9817    0.0000 F   0  0  0  0  0  0  0  0  0  0  0  0
    5.8630   -2.4083    0.0000 F   0  0  0  0  0  0  0  0  0  0  0  0
    5.1240    2.0306    0.0000 C   0  0  0  0  0  0  0  0  0  0  0  0
    3.7195    2.5571    0.0000 C   0  0  0  0  0  0  0  0  0  0  0  0
    2.5612    1.6039    0.0000 C   0  0  0  0  0  0  0  0  0  0  0  0
    1.0779    1.8269    0.0000 N   0  0  0  0  0  0  0  0  0  0  0  0
   -4.0314   -0.2539    0.0000 C   0  0  0  0  0  0  0  0  0  0  0  0
   -3.0783   -1.4121    0.0000 O   0  0  0  0  0  0  0  0  0  0  0  0
   -3.6048   -2.8167    0.0000 C   0  0  0  0  0  0  0  0  0  0  0  0
  1  2  1  0
  2  3  1  0
  3  4  2  0
  3 24  1  0
  4  5  1  0
  5  6  2  0
  6  7  1  0
  7  8  1  0
  7 24  2  0
  8  9  1  0
  9 10  2  0
  9 11  1  0
 11 12  2  0
 11 23  1  0
 12 13  1  0
 13 14  2  0
 13 22  1  0
 14 15  1  0
 15 16  1  0
 15 20  2  0
 16 17  1  0
 17 18  1  0
 17 19  1  0
 20 21  1  0
 21 22  2  0
 22 23  1  0
 24 25  1  0
 25 26  1  0
M  END
>  <s_m_entry_id>  (120) 
216

>  <s_m_entry_name>  (120) 
SIM_Broad_MProResults_ligprep.216

>  <Mol2_MolInfo_Name>  (120) 
7040

>  <Mol2_MolInfo_Type>  (120) 
SMALL

>  <Mol2_MolInfo_Charge>  (120) 
USER_CHARGES

>  <Mol2_Substructures>  (120) 
     1 ****        1 GROUP             0       ****    0 ROOT    

>  <Name>  (120) 
7040

>  <s_m_Source_Path>  (120) 
/home/jgilaber/drug_learning/drug_learning/datasets/SARS2

>  <s_m_Source_File>  (120) 
SIM_Broad_MProResults_ligprep.sd

>  <i_m_Source_File_Index>  (120) 
216

>  <s_m_subgroup_title>  (120) 
SIM_Broad_MProResults_ligprep

>  <s_m_subgroupid>  (120) 
SIM_Broad_MProResults_ligprep

>  <b_m_subgroup_collapsed>  (120) 
0

$$$$
14460
     RDKit          2D

 57 65  0  0  1  0  0  0  0  0999 V2000
    9.2099    4.7008    0.0000 C   0  0  0  0  0  0  0  0  0  0  0  0
    7.7123    4.7856    0.0000 C   0  0  0  0  0  0  0  0  0  0  0  0
    6.8900    3.5310    0.0000 C   0  0  0  0  0  0  0  0  0  0  0  0
    5.3924    3.6158    0.0000 C   0  0  0  0  0  0  0  0  0  0  0  0
    4.4250    2.4564    0.0000 C   0  0  0  0  0  0  0  0  0  0  0  0
    5.8987    2.1769    0.0000 C   0  0  0  0  0  0  0  0  0  0  0  0
    6.7431    0.9371    0.0000 N   0  0  0  0  0  0  0  0  0  0  0  0
    7.5654    2.1917    0.0000 C   0  0  0  0  0  0  0  0  0  0  0  0
    6.4635   -0.5366    0.0000 C   0  0  0  0  0  0  0  0  0  0  0  0
    5.2238   -1.3810    0.0000 C   0  0  0  0  0  0  0  0  0  0  0  0
    3.7501   -1.1014    0.0000 C   0  0  0  0  0  0  0  0  0  0  0  0
    3.0288   -2.4166    0.0000 N   0  0  0  0  0  0  0  0  0  0  0  0
    4.0567   -3.5090    0.0000 C   0  0  0  0  0  0  0  0  0  0  0  0
    3.9327   -5.0039    0.0000 C   0  0  0  0  0  0  0  0  0  0  0  0
    5.1653   -5.8587    0.0000 C   0  0  0  0  0  0  0  0  0  0  0  0
    6.5219   -5.2187    0.0000 C   0  0  0  0  0  0  0  0  0  0  0  0
    6.6459   -3.7238    0.0000 C   0  0  0  0  0  0  0  0  0  0  0  0
    5.4133   -2.8690    0.0000 C   0  0  0  0  0  0  0  0  0  0  0  0
    2.9057    0.1383    0.0000 C   0  0  0  0  0  0  0  0  0  0  0  0
    3.1852    1.6120    0.0000 C   0  0  0  0  0  0  0  0  0  0  0  0
    1.9267   -0.9982    0.0000 C   0  0  0  0  0  0  0  0  0  0  0  0
    0.4291   -1.0835    0.0000 O   0  0  0  0  0  0  0  0  0  0  0  0
    2.4214   -2.4142    0.0000 O   0  0  0  0  0  0  0  0  0  0  0  0
    1.4425   -3.5507    0.0000 C   0  0  0  0  0  0  0  0  0  0  0  0
    1.5545    0.7898    0.0000 C   0  0  0  0  0  0  0  0  0  0  0  0
    0.3148   -0.0546    0.0000 C   0  0  0  0  0  0  0  0  0  0  0  0
   -1.0364    0.5969    0.0000 C   0  0  0  0  0  0  0  0  0  0  0  0
   -1.1478    2.0927    0.0000 C   0  0  0  0  0  0  0  0  0  0  0  0
    0.0920    2.9371    0.0000 C   0  0  0  0  0  0  0  0  0  0  0  0
    1.4431    2.2856    0.0000 C   0  0  0  0  0  0  0  0  0  0  0  0
    2.6829    3.1300    0.0000 O   0  0  0  0  0  0  0  0  0  0  0  0
    2.5715    4.6259    0.0000 C   0  0  0  0  0  0  0  0  0  0  0  0
   -2.6048    2.4490    0.0000 N   0  0  0  0  0  0  0  0  0  0  0  0
   -3.1730    3.8373    0.0000 C   0  0  0  0  0  0  0  0  0  0  0  0
   -3.3940    1.1734    0.0000 C   0  0  0  0  0  0  0  0  0  0  0  0
   -4.8700    0.9063    0.0000 C   0  0  0  0  0  0  0  0  0  0  0  0
   -4.8768    2.4062    0.0000 O   0  0  0  0  0  0  0  0  0  0  0  0
   -5.3767   -0.5056    0.0000 C   0  0  0  0  0  0  0  0  0  0  0  0
   -6.8527   -0.7727    0.0000 O   0  0  0  0  0  0  0  0  0  0  0  0
   -7.8220    0.3720    0.0000 C   0  0  0  0  0  0  0  0  0  0  0  0
   -7.6721    1.8645    0.0000 O   0  0  0  0  0  0  0  0  0  0  0  0
   -9.2981    0.1049    0.0000 C   0  0  0  0  0  0  0  0  0  0  0  0
   -4.4073   -1.6503    0.0000 C   0  0  0  0  0  0  0  0  0  0  0  0
   -5.8833   -1.9174    0.0000 C   0  0  0  0  0  0  0  0  0  0  0  0
   -7.1009   -1.0413    0.0000 C   0  0  0  0  0  0  0  0  0  0  0  0
   -4.9140   -3.0621    0.0000 C   0  0  0  0  0  0  0  0  0  0  0  0
   -3.9446   -4.2068    0.0000 C   0  0  0  0  0  0  0  0  0  0  0  0
   -2.4686   -3.9397    0.0000 C   0  0  0  0  0  0  0  0  0  0  0  0
   -1.9619   -2.5279    0.0000 N   0  0  0  0  0  0  0  0  0  0  0  0
   -0.6407   -1.8177    0.0000 C   0  0  0  0  0  0  0  0  0  0  0  0
   -0.9078   -0.3417    0.0000 C   0  0  0  0  0  0  0  0  0  0  0  0
   -2.4246    0.0287    0.0000 C   0  0  0  0  0  0  0  0  0  0  0  0
   -2.9313   -1.3832    0.0000 C   0  0  0  0  0  0  0  0  0  0  0  0
   -6.3484    1.1601    0.0000 C   0  0  0  0  0  0  0  0  0  0  0  0
   -7.7366    0.5920    0.0000 O   0  0  0  0  0  0  0  0  0  0  0  0
   -6.8677    2.5673    0.0000 O   0  0  0  0  0  0  0  0  0  0  0  0
   -8.3461    2.8211    0.0000 C   0  0  0  0  0  0  0  0  0  0  0  0
  1  2  1  0
  2  3  1  0
  3  4  2  0
  3  8  1  0
  4  5  1  0
  5  6  1  0
  5 20  1  0
  6  7  1  0
  7  8  1  0
  7  9  1  0
  9 10  1  0
 10 11  2  0
 10 18  1  0
 11 12  1  0
 11 19  1  0
 12 13  1  0
 13 14  1  0
 13 18  2  0
 14 15  2  0
 15 16  1  0
 16 17  2  0
 17 18  1  0
 19 20  1  0
 19 21  1  0
 19 25  1  0
 21 22  2  0
 21 23  1  0
 23 24  1  0
 25 26  2  0
 25 30  1  0
 26 27  1  0
 27 28  2  0
 27 52  1  0
 28 29  1  0
 28 33  1  0
 29 30  2  0
 30 31  1  0
 31 32  1  0
 33 34  1  0
 33 35  1  0
 35 36  1  0
 35 52  1  0
 36 37  1  0
 36 38  1  0
 36 54  1  0
 38 39  1  0
 38 43  1  0
 39 40  1  0
 40 41  2  0
 40 42  1  0
 43 44  1  0
 43 46  1  0
 43 53  1  0
 44 45  1  0
 46 47  2  0
 47 48  1  0
 48 49  1  0
 49 50  1  0
 49 53  1  0
 50 51  1  0
 51 52  1  0
 52 53  1  0
 54 55  2  0
 54 56  1  0
 56 57  1  0
M  CHG  1   7   1
M  END
>  <s_m_entry_id>  (121) 
326

>  <s_m_entry_name>  (121) 
SIM_Broad_MProResults_ligprep.326

>  <Mol2_MolInfo_Name>  (121) 
14460

>  <Mol2_MolInfo_Type>  (121) 
SMALL

>  <Mol2_MolInfo_Charge>  (121) 
USER_CHARGES

>  <Mol2_Substructures>  (121) 
     1 ****        1 GROUP             0       ****    0 ROOT    

>  <Name>  (121) 
14460

>  <s_m_Source_Path>  (121) 
/home/jgilaber/drug_learning/drug_learning/datasets/SARS2

>  <s_m_Source_File>  (121) 
SIM_Broad_MProResults_ligprep.sd

>  <i_m_Source_File_Index>  (121) 
326

>  <s_m_subgroup_title>  (121) 
SIM_Broad_MProResults_ligprep

>  <s_m_subgroupid>  (121) 
SIM_Broad_MProResults_ligprep

>  <b_m_subgroup_collapsed>  (121) 
0

$$$$
7897
     RDKit          2D

 21 25  0  0  1  0  0  0  0  0999 V2000
    1.2777   -3.9942    0.0000 C   0  0  0  0  0  0  0  0  0  0  0  0
    1.4366   -2.5027    0.0000 N   0  0  0  0  0  0  0  0  0  0  0  0
    2.8078   -1.8945    0.0000 C   0  0  0  0  0  0  0  0  0  0  0  0
    2.9667   -0.4030    0.0000 C   0  0  0  0  0  0  0  0  0  0  0  0
    4.3379    0.2052    0.0000 C   0  0  0  0  0  0  0  0  0  0  0  0
    4.4968    1.6967    0.0000 C   0  0  0  0  0  0  0  0  0  0  0  0
    3.2845    2.5802    0.0000 C   0  0  0  0  0  0  0  0  0  0  0  0
    1.9134    1.9720    0.0000 C   0  0  0  0  0  0  0  0  0  0  0  0
    1.7544    0.4805    0.0000 C   0  0  0  0  0  0  0  0  0  0  0  0
    0.3832   -0.1277    0.0000 C   0  0  0  0  0  0  0  0  0  0  0  0
    0.2243   -1.6193    0.0000 C   0  0  0  0  0  0  0  0  0  0  0  0
   -1.1469   -2.2274    0.0000 C   0  0  0  0  0  0  0  0  0  0  0  0
   -2.3591   -1.3440    0.0000 C   0  0  0  0  0  0  0  0  0  0  0  0
   -3.8268   -1.6538    0.0000 C   0  0  0  0  0  0  0  0  0  0  0  0
   -4.5749   -0.3537    0.0000 N   0  0  0  0  0  0  0  0  0  0  0  0
   -3.5697    0.7596    0.0000 C   0  0  0  0  0  0  0  0  0  0  0  0
   -3.4250    2.2594    0.0000 C   0  0  0  0  0  0  0  0  0  0  0  0
   -2.1248    3.0076    0.0000 C   0  0  0  0  0  0  0  0  0  0  0  0
   -0.8269    2.2557    0.0000 C   0  0  0  0  0  0  0  0  0  0  0  0
   -0.8290    0.7557    0.0000 C   0  0  0  0  0  0  0  0  0  0  0  0
   -2.2002    0.1476    0.0000 C   0  0  0  0  0  0  0  0  0  0  0  0
  1  2  1  0
  2  3  1  0
  2 11  1  0
  3  4  1  0
  4  5  1  0
  4  9  2  0
  5  6  2  0
  6  7  1  0
  7  8  2  0
  8  9  1  0
  9 10  1  0
 10 11  1  0
 10 20  1  0
 11 12  1  0
 12 13  1  0
 13 14  2  0
 13 21  1  0
 14 15  1  0
 15 16  1  0
 16 17  1  0
 16 21  2  0
 17 18  2  0
 18 19  1  0
 19 20  2  0
 20 21  1  0
M  END
>  <s_m_entry_id>  (122) 
280

>  <s_m_entry_name>  (122) 
SIM_Broad_MProResults_ligprep.280

>  <Mol2_MolInfo_Name>  (122) 
7897

>  <Mol2_MolInfo_Type>  (122) 
SMALL

>  <Mol2_MolInfo_Charge>  (122) 
USER_CHARGES

>  <Mol2_Substructures>  (122) 
     1 UNK         1 GROUP             0       ****    0 ROOT    

>  <Name>  (122) 
7897

>  <s_m_Source_Path>  (122) 
/home/jgilaber/drug_learning/drug_learning/datasets/SARS2

>  <s_m_Source_File>  (122) 
SIM_Broad_MProResults_ligprep.sd

>  <i_m_Source_File_Index>  (122) 
280

>  <s_m_subgroup_title>  (122) 
SIM_Broad_MProResults_ligprep

>  <s_m_subgroupid>  (122) 
SIM_Broad_MProResults_ligprep

>  <b_m_subgroup_collapsed>  (122) 
0

$$$$
5272
     RDKit          2D

 33 37  0  0  1  0  0  0  0  0999 V2000
    6.4950    0.1679    0.0000 O   0  0  0  0  0  0  0  0  0  0  0  0
    5.0032    0.0118    0.0000 C   0  0  0  0  0  0  0  0  0  0  0  0
    4.3925   -1.3583    0.0000 C   0  0  0  0  0  0  0  0  0  0  0  0
    5.2736   -2.5722    0.0000 I   0  0  0  0  0  0  0  0  0  0  0  0
    2.9006   -1.5144    0.0000 C   0  0  0  0  0  0  0  0  0  0  0  0
    2.0195   -0.3005    0.0000 C   0  0  0  0  0  0  0  0  0  0  0  0
    2.6301    1.0695    0.0000 C   0  0  0  0  0  0  0  0  0  0  0  0
    1.7490    2.2834    0.0000 O   0  0  0  0  0  0  0  0  0  0  0  0
    0.2571    2.1273    0.0000 C   0  0  0  0  0  0  0  0  0  0  0  0
   -0.6240    3.3412    0.0000 C   0  0  0  0  0  0  0  0  0  0  0  0
   -0.0133    4.7112    0.0000 I   0  0  0  0  0  0  0  0  0  0  0  0
   -2.1159    3.1850    0.0000 C   0  0  0  0  0  0  0  0  0  0  0  0
   -2.9970    4.3989    0.0000 O   0  0  0  0  0  0  0  0  0  0  0  0
   -2.7266    1.8150    0.0000 C   0  0  0  0  0  0  0  0  0  0  0  0
   -4.2184    1.6588    0.0000 I   0  0  0  0  0  0  0  0  0  0  0  0
   -1.8454    0.6011    0.0000 C   0  0  0  0  0  0  0  0  0  0  0  0
   -0.3536    0.7572    0.0000 C   0  0  0  0  0  0  0  0  0  0  0  0
    0.5276   -0.4567    0.0000 C   0  0  0  0  0  0  0  0  0  0  0  0
    1.2771   -1.7560    0.0000 O   0  0  0  0  0  0  0  0  0  0  0  0
    0.2729   -2.8703    0.0000 C   0  0  0  0  0  0  0  0  0  0  0  0
    0.5841   -4.3377    0.0000 O   0  0  0  0  0  0  0  0  0  0  0  0
   -1.0972   -2.2596    0.0000 C   0  0  0  0  0  0  0  0  0  0  0  0
   -2.3943   -2.1730    0.0000 C   0  0  0  0  0  0  0  0  0  0  0  0
   -2.6252   -4.3609    0.0000 Cl  0  0  0  0  0  0  0  0  0  0  0  0
   -3.0413   -1.7025    0.0000 C   0  0  0  0  0  0  0  0  0  0  0  0
   -5.0515   -2.5965    0.0000 Cl  0  0  0  0  0  0  0  0  0  0  0  0
   -2.9573   -0.9069    0.0000 C   0  0  0  0  0  0  0  0  0  0  0  0
   -4.7366    0.3869    0.0000 Cl  0  0  0  0  0  0  0  0  0  0  0  0
   -2.2264   -0.5819    0.0000 C   0  0  0  0  0  0  0  0  0  0  0  0
   -2.2733    0.1788    0.0000 Cl  0  0  0  0  0  0  0  0  0  0  0  0
   -0.9397   -0.7679    0.0000 C   0  0  0  0  0  0  0  0  0  0  0  0
    4.1220    1.2257    0.0000 C   0  0  0  0  0  0  0  0  0  0  0  0
    4.7327    2.5957    0.0000 I   0  0  0  0  0  0  0  0  0  0  0  0
  1  2  1  0
  2  3  2  0
  2 32  1  0
  3  4  1  0
  3  5  1  0
  5  6  2  0
  6  7  1  0
  6 18  1  0
  7  8  1  0
  7 32  2  0
  8  9  1  0
  9 10  2  0
  9 17  1  0
 10 11  1  0
 10 12  1  0
 12 13  1  0
 12 14  2  0
 14 15  1  0
 14 16  1  0
 16 17  2  0
 17 18  1  0
 18 19  1  0
 18 31  1  0
 19 20  1  0
 20 21  2  0
 20 22  1  0
 22 23  1  0
 22 31  2  0
 23 24  1  0
 23 25  2  0
 25 26  1  0
 25 27  1  0
 27 28  1  0
 27 29  2  0
 29 30  1  0
 29 31  1  0
 32 33  1  0
M  CHG  1   1  -1
M  END
>  <s_m_entry_id>  (123) 
264

>  <s_m_entry_name>  (123) 
SIM_Broad_MProResults_ligprep.264

>  <Mol2_MolInfo_Name>  (123) 
5272

>  <Mol2_MolInfo_Type>  (123) 
SMALL

>  <Mol2_MolInfo_Charge>  (123) 
USER_CHARGES

>  <Mol2_Substructures>  (123) 
     1 UNK         1 GROUP             0       ****    0 ROOT    

>  <Name>  (123) 
5272

>  <s_m_Source_Path>  (123) 
/home/jgilaber/drug_learning/drug_learning/datasets/SARS2

>  <s_m_Source_File>  (123) 
SIM_Broad_MProResults_ligprep.sd

>  <i_m_Source_File_Index>  (123) 
264

>  <s_m_subgroup_title>  (123) 
SIM_Broad_MProResults_ligprep

>  <s_m_subgroupid>  (123) 
SIM_Broad_MProResults_ligprep

>  <b_m_subgroup_collapsed>  (123) 
0

$$$$
10420
     RDKit          2D

 27 29  0  0  1  0  0  0  0  0999 V2000
   -0.1814    2.0601    0.0000 C   0  0  0  0  0  0  0  0  0  0  0  0
   -1.3084    1.0702    0.0000 O   0  0  0  0  0  0  0  0  0  0  0  0
   -1.0147   -0.4007    0.0000 C   0  0  0  0  0  0  0  0  0  0  0  0
    0.4061   -0.8818    0.0000 C   0  0  0  0  0  0  0  0  0  0  0  0
    0.6999   -2.3527    0.0000 C   0  0  0  0  0  0  0  0  0  0  0  0
   -0.4271   -3.3426    0.0000 C   0  0  0  0  0  0  0  0  0  0  0  0
   -1.8479   -2.8616    0.0000 C   0  0  0  0  0  0  0  0  0  0  0  0
   -2.3289   -4.2823    0.0000 C   0  0  0  0  0  0  0  0  0  0  0  0
   -3.3188   -3.1554    0.0000 O   0  0  0  0  0  0  0  0  0  0  0  0
   -2.1416   -1.3906    0.0000 C   0  0  0  0  0  0  0  0  0  0  0  0
   -3.5624   -0.9096    0.0000 C   0  0  0  0  0  0  0  0  0  0  0  0
   -4.2829   -2.2252    0.0000 C   0  0  0  0  0  0  0  0  0  0  0  0
   -4.7330    0.0284    0.0000 O   0  0  0  0  0  0  0  0  0  0  0  0
   -3.3354    0.5732    0.0000 C   0  0  0  0  0  0  0  0  0  0  0  0
   -2.3974    1.7437    0.0000 C   0  0  0  0  0  0  0  0  0  0  0  0
   -2.9421    3.1413    0.0000 C   0  0  0  0  0  0  0  0  0  0  0  0
   -2.0042    4.3119    0.0000 C   0  0  0  0  0  0  0  0  0  0  0  0
   -2.5489    5.7094    0.0000 C   0  0  0  0  0  0  0  0  0  0  0  0
   -0.5215    4.0848    0.0000 C   0  0  0  0  0  0  0  0  0  0  0  0
    1.5331    0.1081    0.0000 O   0  0  0  0  0  0  0  0  0  0  0  0
    2.9539   -0.3729    0.0000 C   0  0  0  0  0  0  0  0  0  0  0  0
    3.2477   -1.8439    0.0000 O   0  0  0  0  0  0  0  0  0  0  0  0
    4.0809    0.6169    0.0000 N   0  0  0  0  0  0  0  0  0  0  0  0
    5.5016    0.1359    0.0000 C   0  0  0  0  0  0  0  0  0  0  0  0
    5.7954   -1.3351    0.0000 O   0  0  0  0  0  0  0  0  0  0  0  0
    6.6286    1.1258    0.0000 C   0  0  0  0  0  0  0  0  0  0  0  0
    8.0494    0.6447    0.0000 Cl  0  0  0  0  0  0  0  0  0  0  0  0
  1  2  1  0
  2  3  1  0
  3  4  1  0
  3 10  1  0
  4  5  1  0
  4 20  1  0
  5  6  1  0
  6  7  1  0
  7  8  1  0
  7  9  1  0
  7 10  1  0
  8  9  1  0
 10 11  1  0
 11 12  1  0
 11 13  1  0
 11 14  1  0
 13 14  1  0
 14 15  1  0
 15 16  1  0
 16 17  2  3
 17 18  1  0
 17 19  1  0
 20 21  1  0
 21 22  2  0
 21 23  1  0
 23 24  1  0
 24 25  2  0
 24 26  1  0
 26 27  1  0
M  END
>  <s_m_entry_id>  (124) 
64

>  <s_m_entry_name>  (124) 
SIM_Broad_MProResults_ligprep.64

>  <Mol2_MolInfo_Name>  (124) 
10420

>  <Mol2_MolInfo_Type>  (124) 
SMALL

>  <Mol2_MolInfo_Charge>  (124) 
USER_CHARGES

>  <Mol2_Substructures>  (124) 
     1 UNK         1 GROUP             0       ****    0 ROOT    

>  <Name>  (124) 
10420

>  <s_m_Source_Path>  (124) 
/home/jgilaber/drug_learning/drug_learning/datasets/SARS2

>  <s_m_Source_File>  (124) 
SIM_Broad_MProResults_ligprep.sd

>  <i_m_Source_File_Index>  (124) 
64

>  <s_m_subgroup_title>  (124) 
SIM_Broad_MProResults_ligprep

>  <s_m_subgroupid>  (124) 
SIM_Broad_MProResults_ligprep

>  <b_m_subgroup_collapsed>  (124) 
0

$$$$
688
     RDKit          2D

 24 26  0  0  1  0  0  0  0  0999 V2000
   -8.5505   -0.5131    0.0000 C   0  0  0  0  0  0  0  0  0  0  0  0
   -7.2498   -1.2602    0.0000 O   0  0  0  0  0  0  0  0  0  0  0  0
   -5.9524   -0.5073    0.0000 C   0  0  0  0  0  0  0  0  0  0  0  0
   -5.9558    0.9927    0.0000 C   0  0  0  0  0  0  0  0  0  0  0  0
   -4.6584    1.7457    0.0000 C   0  0  0  0  0  0  0  0  0  0  0  0
   -3.3577    0.9986    0.0000 C   0  0  0  0  0  0  0  0  0  0  0  0
   -1.9322    1.4653    0.0000 N   0  0  0  0  0  0  0  0  0  0  0  0
   -1.0478    0.2538    0.0000 C   0  0  0  0  0  0  0  0  0  0  0  0
   -1.9267   -0.9617    0.0000 N   0  0  0  0  0  0  0  0  0  0  0  0
   -3.3544   -0.5014    0.0000 C   0  0  0  0  0  0  0  0  0  0  0  0
   -4.6517   -1.2543    0.0000 C   0  0  0  0  0  0  0  0  0  0  0  0
    0.4522    0.2571    0.0000 S   0  0  0  0  0  0  0  0  0  0  0  0
    1.1993    1.5579    0.0000 O   0  0  0  0  0  0  0  0  0  0  0  0
    1.2051   -1.0402    0.0000 C   0  0  0  0  0  0  0  0  0  0  0  0
    2.7051   -1.0368    0.0000 C   0  0  0  0  0  0  0  0  0  0  0  0
    3.4580   -2.3342    0.0000 N   0  0  0  0  0  0  0  0  0  0  0  0
    4.9580   -2.3308    0.0000 C   0  0  0  0  0  0  0  0  0  0  0  0
    5.7051   -1.0301    0.0000 C   0  0  0  0  0  0  0  0  0  0  0  0
    7.2051   -1.0267    0.0000 C   0  0  0  0  0  0  0  0  0  0  0  0
    4.9522    0.2673    0.0000 C   0  0  0  0  0  0  0  0  0  0  0  0
    5.6993    1.5680    0.0000 O   0  0  0  0  0  0  0  0  0  0  0  0
    4.9464    2.8653    0.0000 C   0  0  0  0  0  0  0  0  0  0  0  0
    3.4522    0.2639    0.0000 C   0  0  0  0  0  0  0  0  0  0  0  0
    2.6993    1.5612    0.0000 C   0  0  0  0  0  0  0  0  0  0  0  0
  1  2  1  0
  2  3  1  0
  3  4  2  0
  3 11  1  0
  4  5  1  0
  5  6  2  0
  6  7  1  0
  6 10  1  0
  7  8  1  0
  8  9  2  0
  8 12  1  0
  9 10  1  0
 10 11  2  0
 12 13  2  0
 12 14  1  0
 14 15  1  0
 15 16  1  0
 15 23  2  0
 16 17  1  0
 17 18  2  0
 18 19  1  0
 18 20  1  0
 20 21  1  0
 20 23  1  0
 21 22  1  0
 23 24  1  0
M  END
>  <s_m_entry_id>  (125) 
184

>  <s_m_entry_name>  (125) 
SIM_Broad_MProResults_ligprep.184

>  <Mol2_MolInfo_Name>  (125) 
688

>  <Mol2_MolInfo_Type>  (125) 
SMALL

>  <Mol2_MolInfo_Charge>  (125) 
USER_CHARGES

>  <Mol2_Substructures>  (125) 
     1 ****        1 GROUP             0       ****    0 ROOT    

>  <Name>  (125) 
688

>  <s_m_Source_Path>  (125) 
/home/jgilaber/drug_learning/drug_learning/datasets/SARS2

>  <s_m_Source_File>  (125) 
SIM_Broad_MProResults_ligprep.sd

>  <i_m_Source_File_Index>  (125) 
184

>  <s_m_subgroup_title>  (125) 
SIM_Broad_MProResults_ligprep

>  <s_m_subgroupid>  (125) 
SIM_Broad_MProResults_ligprep

>  <b_m_subgroup_collapsed>  (125) 
0

$$$$
11201
     RDKit          2D

 32 35  0  0  1  0  0  0  0  0999 V2000
  -10.1548   -1.4351    0.0000 O   0  0  0  0  0  0  0  0  0  0  0  0
   -8.6567   -1.3608    0.0000 C   0  0  0  0  0  0  0  0  0  0  0  0
   -7.8432   -2.6210    0.0000 O   0  0  0  0  0  0  0  0  0  0  0  0
   -7.9720   -0.0262    0.0000 C   0  0  0  0  0  0  0  0  0  0  0  0
   -8.6493    1.3122    0.0000 C   0  0  0  0  0  0  0  0  0  0  0  0
   -7.5857    2.3700    0.0000 C   0  0  0  0  0  0  0  0  0  0  0  0
   -6.2511    1.6853    0.0000 C   0  0  0  0  0  0  0  0  0  0  0  0
   -6.4898    0.2044    0.0000 C   0  0  0  0  0  0  0  0  0  0  0  0
   -5.4321   -0.8592    0.0000 C   0  0  0  0  0  0  0  0  0  0  0  0
   -5.8243   -2.3070    0.0000 O   0  0  0  0  0  0  0  0  0  0  0  0
   -3.9821   -0.4750    0.0000 C   0  0  0  0  0  0  0  0  0  0  0  0
   -2.9244   -1.5385    0.0000 C   0  0  0  0  0  0  0  0  0  0  0  0
   -1.4744   -1.1543    0.0000 C   0  0  0  0  0  0  0  0  0  0  0  0
   -1.0822    0.2935    0.0000 C   0  0  0  0  0  0  0  0  0  0  0  0
   -2.1399    1.3571    0.0000 C   0  0  0  0  0  0  0  0  0  0  0  0
   -3.5899    0.9728    0.0000 C   0  0  0  0  0  0  0  0  0  0  0  0
    0.3677    0.6777    0.0000 C   0  0  0  0  0  0  0  0  0  0  0  0
    1.4255   -0.3859    0.0000 C   0  0  0  0  0  0  0  0  0  0  0  0
    2.8754   -0.0017    0.0000 C   0  0  0  0  0  0  0  0  0  0  0  0
    3.2677    1.4462    0.0000 C   0  0  0  0  0  0  0  0  0  0  0  0
    4.7176    1.8304    0.0000 N   0  0  0  0  0  0  0  0  0  0  0  0
    5.7753    0.7668    0.0000 C   0  0  0  0  0  0  0  0  0  0  0  0
    5.3831   -0.6810    0.0000 O   0  0  0  0  0  0  0  0  0  0  0  0
    7.2253    1.1510    0.0000 N   0  0  0  0  0  0  0  0  0  0  0  0
    8.2830    0.0874    0.0000 C   0  0  0  0  0  0  0  0  0  0  0  0
    7.8908   -1.3604    0.0000 C   0  0  0  0  0  0  0  0  0  0  0  0
    8.9485   -2.4240    0.0000 C   0  0  0  0  0  0  0  0  0  0  0  0
   10.3985   -2.0397    0.0000 C   0  0  0  0  0  0  0  0  0  0  0  0
   10.7907   -0.5919    0.0000 C   0  0  0  0  0  0  0  0  0  0  0  0
    9.7330    0.4717    0.0000 C   0  0  0  0  0  0  0  0  0  0  0  0
    2.2099    2.5097    0.0000 C   0  0  0  0  0  0  0  0  0  0  0  0
    0.7600    2.1255    0.0000 C   0  0  0  0  0  0  0  0  0  0  0  0
  1  2  1  0
  2  3  2  0
  2  4  1  0
  4  5  1  0
  4  8  1  0
  5  6  1  0
  6  7  1  0
  7  8  1  0
  8  9  1  0
  9 10  2  0
  9 11  1  0
 11 12  2  0
 11 16  1  0
 12 13  1  0
 13 14  2  0
 14 15  1  0
 14 17  1  0
 15 16  2  0
 17 18  2  0
 17 32  1  0
 18 19  1  0
 19 20  2  0
 20 21  1  0
 20 31  1  0
 21 22  1  0
 22 23  2  0
 22 24  1  0
 24 25  1  0
 25 26  2  0
 25 30  1  0
 26 27  1  0
 27 28  2  0
 28 29  1  0
 29 30  2  0
 31 32  2  0
M  CHG  1   1  -1
M  END
>  <s_m_entry_id>  (126) 
107

>  <s_m_entry_name>  (126) 
SIM_Broad_MProResults_ligprep.107

>  <Mol2_MolInfo_Name>  (126) 
11201

>  <Mol2_MolInfo_Type>  (126) 
SMALL

>  <Mol2_MolInfo_Charge>  (126) 
USER_CHARGES

>  <Mol2_Substructures>  (126) 
     1 UNK         1 GROUP             0       ****    0 ROOT    

>  <Name>  (126) 
11201

>  <s_m_Source_Path>  (126) 
/home/jgilaber/drug_learning/drug_learning/datasets/SARS2

>  <s_m_Source_File>  (126) 
SIM_Broad_MProResults_ligprep.sd

>  <i_m_Source_File_Index>  (126) 
107

>  <s_m_subgroup_title>  (126) 
SIM_Broad_MProResults_ligprep

>  <s_m_subgroupid>  (126) 
SIM_Broad_MProResults_ligprep

>  <b_m_subgroup_collapsed>  (126) 
0

$$$$
11016
     RDKit          2D

 34 37  0  0  1  0  0  0  0  0999 V2000
   -7.9821    3.1871    0.0000 C   0  0  0  0  0  0  0  0  0  0  0  0
   -6.7392    2.3474    0.0000 O   0  0  0  0  0  0  0  0  0  0  0  0
   -6.8450    0.8511    0.0000 N   0  0  0  0  0  0  0  0  0  0  0  0
   -5.6020    0.0114    0.0000 C   0  0  0  0  0  0  0  0  0  0  0  0
   -4.2533    0.6679    0.0000 C   0  0  0  0  0  0  0  0  0  0  0  0
   -4.1476    2.1642    0.0000 O   0  0  0  0  0  0  0  0  0  0  0  0
   -3.0104   -0.1718    0.0000 N   0  0  0  0  0  0  0  0  0  0  0  0
   -1.6617    0.4848    0.0000 C   0  0  0  0  0  0  0  0  0  0  0  0
   -0.2438   -0.0046    0.0000 C   0  0  0  0  0  0  0  0  0  0  0  0
    0.7394   -1.1374    0.0000 S   0  0  0  0  0  0  0  0  0  0  0  0
    2.2121   -0.8523    0.0000 C   0  0  0  0  0  0  0  0  0  0  0  0
    2.7015    0.5656    0.0000 C   0  0  0  0  0  0  0  0  0  0  0  0
    1.7182    1.6984    0.0000 C   0  0  0  0  0  0  0  0  0  0  0  0
    0.2456    1.4133    0.0000 N   0  0  0  0  0  0  0  0  0  0  0  0
   -1.1723    1.9027    0.0000 C   0  0  0  0  0  0  0  0  0  0  0  0
   -1.8289    3.2514    0.0000 O   0  0  0  0  0  0  0  0  0  0  0  0
    2.2077    3.1163    0.0000 C   0  0  0  0  0  0  0  0  0  0  0  0
    3.6803    3.4014    0.0000 O   0  0  0  0  0  0  0  0  0  0  0  0
    1.2244    4.2491    0.0000 O   0  0  0  0  0  0  0  0  0  0  0  0
    4.1741    0.8507    0.0000 C   0  0  0  0  0  0  0  0  0  0  0  0
    5.1574   -0.2821    0.0000 S   0  0  0  0  0  0  0  0  0  0  0  0
    6.6300    0.0030    0.0000 C   0  0  0  0  0  0  0  0  0  0  0  0
    7.1195    1.4209    0.0000 O   0  0  0  0  0  0  0  0  0  0  0  0
    7.6133   -1.1298    0.0000 C   0  0  0  0  0  0  0  0  0  0  0  0
    9.1077   -1.0001    0.0000 O   0  0  0  0  0  0  0  0  0  0  0  0
    9.6927   -2.3813    0.0000 C   0  0  0  0  0  0  0  0  0  0  0  0
    8.5599   -3.3646    0.0000 C   0  0  0  0  0  0  0  0  0  0  0  0
    7.2748   -2.5911    0.0000 C   0  0  0  0  0  0  0  0  0  0  0  0
   -5.7078   -1.4849    0.0000 C   0  0  0  0  0  0  0  0  0  0  0  0
   -4.5594   -2.4499    0.0000 C   0  0  0  0  0  0  0  0  0  0  0  0
   -5.1224   -3.8403    0.0000 S   0  0  0  0  0  0  0  0  0  0  0  0
   -6.6186   -3.7345    0.0000 C   0  0  0  0  0  0  0  0  0  0  0  0
   -7.5837   -4.8829    0.0000 N   0  0  0  0  0  0  0  0  0  0  0  0
   -6.9804   -2.2788    0.0000 N   0  0  0  0  0  0  0  0  0  0  0  0
  1  2  1  0
  2  3  1  0
  3  4  2  0
  4  5  1  0
  4 29  1  0
  5  6  2  0
  5  7  1  0
  7  8  1  0
  8  9  1  0
  8 15  1  0
  9 10  1  0
  9 14  1  0
 10 11  1  0
 11 12  1  0
 12 13  2  0
 12 20  1  0
 13 14  1  0
 13 17  1  0
 14 15  1  0
 15 16  2  0
 17 18  2  0
 17 19  1  0
 20 21  1  0
 21 22  1  0
 22 23  2  0
 22 24  1  0
 24 25  1  0
 24 28  2  0
 25 26  1  0
 26 27  2  0
 27 28  1  0
 29 30  2  0
 29 34  1  0
 30 31  1  0
 31 32  1  0
 32 33  1  0
 32 34  2  0
M  CHG  1  19  -1
M  END
>  <s_m_entry_id>  (127) 
100

>  <s_m_entry_name>  (127) 
SIM_Broad_MProResults_ligprep.100

>  <Mol2_MolInfo_Name>  (127) 
11016

>  <Mol2_MolInfo_Type>  (127) 
SMALL

>  <Mol2_MolInfo_Charge>  (127) 
USER_CHARGES

>  <Mol2_Substructures>  (127) 
     1 UNK         1 GROUP             0       ****    0 ROOT    

>  <Name>  (127) 
11016

>  <s_m_Source_Path>  (127) 
/home/jgilaber/drug_learning/drug_learning/datasets/SARS2

>  <s_m_Source_File>  (127) 
SIM_Broad_MProResults_ligprep.sd

>  <i_m_Source_File_Index>  (127) 
100

>  <s_m_subgroup_title>  (127) 
SIM_Broad_MProResults_ligprep

>  <s_m_subgroupid>  (127) 
SIM_Broad_MProResults_ligprep

>  <b_m_subgroup_collapsed>  (127) 
0

$$$$
3129
     RDKit          2D

 14 15  0  0  1  0  0  0  0  0999 V2000
    2.8528    2.2856    0.0000 O   0  0  0  0  0  0  0  0  0  0  0  0
    1.4824    1.6756    0.0000 C   0  0  0  0  0  0  0  0  0  0  0  0
    0.2690    2.5573    0.0000 C   0  0  0  0  0  0  0  0  0  0  0  0
   -1.1014    1.9473    0.0000 C   0  0  0  0  0  0  0  0  0  0  0  0
   -1.2583    0.4555    0.0000 C   0  0  0  0  0  0  0  0  0  0  0  0
   -0.0448   -0.4262    0.0000 C   0  0  0  0  0  0  0  0  0  0  0  0
   -0.2017   -1.9180    0.0000 C   0  0  0  0  0  0  0  0  0  0  0  0
    1.0117   -2.7998    0.0000 C   0  0  0  0  0  0  0  0  0  0  0  0
    2.3821   -2.1898    0.0000 C   0  0  0  0  0  0  0  0  0  0  0  0
    2.5390   -0.6980    0.0000 N   0  0  0  0  0  0  0  0  0  0  0  0
    1.3255    0.1838    0.0000 C   0  0  0  0  0  0  0  0  0  0  0  0
   -2.6287   -0.1545    0.0000 N   0  0  0  0  0  0  0  0  0  0  0  0
   -2.7856   -1.6462    0.0000 O   0  0  0  0  0  0  0  0  0  0  0  0
   -3.8421    0.7273    0.0000 O   0  0  0  0  0  0  0  0  0  0  0  0
  1  2  1  0
  2  3  2  0
  2 11  1  0
  3  4  1  0
  4  5  2  0
  5  6  1  0
  5 12  1  0
  6  7  1  0
  6 11  2  0
  7  8  2  0
  8  9  1  0
  9 10  2  0
 10 11  1  0
 12 13  2  0
 12 14  1  0
M  CHG  3   1  -1  12   1  14  -1
M  END
>  <s_m_entry_id>  (128) 
245

>  <s_m_entry_name>  (128) 
SIM_Broad_MProResults_ligprep.245

>  <Mol2_MolInfo_Name>  (128) 
3129

>  <Mol2_MolInfo_Type>  (128) 
SMALL

>  <Mol2_MolInfo_Charge>  (128) 
USER_CHARGES

>  <Mol2_Substructures>  (128) 
     1 UNK         1 GROUP             0       ****    0 ROOT    

>  <Name>  (128) 
3129

>  <s_m_Source_Path>  (128) 
/home/jgilaber/drug_learning/drug_learning/datasets/SARS2

>  <s_m_Source_File>  (128) 
SIM_Broad_MProResults_ligprep.sd

>  <i_m_Source_File_Index>  (128) 
245

>  <s_m_subgroup_title>  (128) 
SIM_Broad_MProResults_ligprep

>  <s_m_subgroupid>  (128) 
SIM_Broad_MProResults_ligprep

>  <b_m_subgroup_collapsed>  (128) 
0

$$$$
10957
     RDKit          2D

 33 37  0  0  1  0  0  0  0  0999 V2000
   -1.6705   -5.5473    0.0000 C   0  0  0  0  0  0  0  0  0  0  0  0
   -1.4925   -4.0580    0.0000 C   0  0  0  0  0  0  0  0  0  0  0  0
   -0.1136   -3.4674    0.0000 C   0  0  0  0  0  0  0  0  0  0  0  0
   -2.6933   -3.1591    0.0000 C   0  0  0  0  0  0  0  0  0  0  0  0
   -4.0722   -3.7496    0.0000 C   0  0  0  0  0  0  0  0  0  0  0  0
   -5.2730   -2.8507    0.0000 C   0  0  0  0  0  0  0  0  0  0  0  0
   -5.0950   -1.3613    0.0000 C   0  0  0  0  0  0  0  0  0  0  0  0
   -3.7161   -0.7708    0.0000 C   0  0  0  0  0  0  0  0  0  0  0  0
   -3.5381    0.7186    0.0000 C   0  0  0  0  0  0  0  0  0  0  0  0
   -2.1592    1.3091    0.0000 C   0  0  0  0  0  0  0  0  0  0  0  0
   -0.9584    0.4102    0.0000 C   0  0  0  0  0  0  0  0  0  0  0  0
   -1.1364   -1.0792    0.0000 N   0  0  0  0  0  0  0  0  0  0  0  0
   -2.5153   -1.6697    0.0000 C   0  0  0  0  0  0  0  0  0  0  0  0
    0.4205    1.0007    0.0000 C   0  0  0  0  0  0  0  0  0  0  0  0
    0.7533    2.4634    0.0000 C   0  0  0  0  0  0  0  0  0  0  0  0
    2.2471    2.5989    0.0000 C   0  0  0  0  0  0  0  0  0  0  0  0
    2.8376    1.2200    0.0000 C   0  0  0  0  0  0  0  0  0  0  0  0
    1.7087    0.2323    0.0000 N   0  0  0  0  0  0  0  0  0  0  0  0
    4.3003    0.8873    0.0000 C   0  0  0  0  0  0  0  0  0  0  0  0
    4.7434   -0.5458    0.0000 C   0  0  0  0  0  0  0  0  0  0  0  0
    6.2060   -0.8785    0.0000 C   0  0  0  0  0  0  0  0  0  0  0  0
    7.2255    0.2218    0.0000 C   0  0  0  0  0  0  0  0  0  0  0  0
    6.7824    1.6548    0.0000 C   0  0  0  0  0  0  0  0  0  0  0  0
    5.3198    1.9876    0.0000 C   0  0  0  0  0  0  0  0  0  0  0  0
    8.6882   -0.1110    0.0000 C   0  0  0  0  0  0  0  0  0  0  0  0
    9.7076    0.9893    0.0000 O   0  0  0  0  0  0  0  0  0  0  0  0
    9.1313   -1.5440    0.0000 O   0  0  0  0  0  0  0  0  0  0  0  0
   -4.7389    1.6175    0.0000 C   0  0  0  0  0  0  0  0  0  0  0  0
   -4.5609    3.1069    0.0000 C   0  0  0  0  0  0  0  0  0  0  0  0
   -5.7617    4.0058    0.0000 C   0  0  0  0  0  0  0  0  0  0  0  0
   -7.1406    3.4153    0.0000 C   0  0  0  0  0  0  0  0  0  0  0  0
   -7.3186    1.9259    0.0000 C   0  0  0  0  0  0  0  0  0  0  0  0
   -6.1178    1.0270    0.0000 C   0  0  0  0  0  0  0  0  0  0  0  0
  1  2  1  0
  2  3  1  0
  2  4  1  0
  4  5  2  0
  4 13  1  0
  5  6  1  0
  6  7  2  0
  7  8  1  0
  8  9  1  0
  8 13  2  0
  9 10  2  0
  9 28  1  0
 10 11  1  0
 11 12  2  0
 11 14  1  0
 12 13  1  0
 14 15  2  0
 14 18  1  0
 15 16  1  0
 16 17  2  0
 17 18  1  0
 17 19  1  0
 19 20  2  0
 19 24  1  0
 20 21  1  0
 21 22  2  0
 22 23  1  0
 22 25  1  0
 23 24  2  0
 25 26  2  0
 25 27  1  0
 28 29  2  0
 28 33  1  0
 29 30  1  0
 30 31  2  0
 31 32  1  0
 32 33  2  0
M  CHG  1  27  -1
M  END
>  <s_m_entry_id>  (129) 
98

>  <s_m_entry_name>  (129) 
SIM_Broad_MProResults_ligprep.98

>  <Mol2_MolInfo_Name>  (129) 
10957

>  <Mol2_MolInfo_Type>  (129) 
SMALL

>  <Mol2_MolInfo_Charge>  (129) 
USER_CHARGES

>  <Mol2_Substructures>  (129) 
     1 UNK         1 GROUP             0       ****    0 ROOT    

>  <Name>  (129) 
10957

>  <s_m_Source_Path>  (129) 
/home/jgilaber/drug_learning/drug_learning/datasets/SARS2

>  <s_m_Source_File>  (129) 
SIM_Broad_MProResults_ligprep.sd

>  <i_m_Source_File_Index>  (129) 
98

>  <s_m_subgroup_title>  (129) 
SIM_Broad_MProResults_ligprep

>  <s_m_subgroupid>  (129) 
SIM_Broad_MProResults_ligprep

>  <b_m_subgroup_collapsed>  (129) 
0

$$$$
11326
     RDKit          2D

 34 38  0  0  1  0  0  0  0  0999 V2000
    1.4185    2.8594    0.0000 C   0  0  0  0  0  0  0  0  0  0  0  0
    2.3806    1.7086    0.0000 C   0  0  0  0  0  0  0  0  0  0  0  0
    3.8583    1.9664    0.0000 C   0  0  0  0  0  0  0  0  0  0  0  0
    4.8204    0.8156    0.0000 C   0  0  0  0  0  0  0  0  0  0  0  0
    4.3048   -0.5930    0.0000 C   0  0  0  0  0  0  0  0  0  0  0  0
    2.8272   -0.8508    0.0000 C   0  0  0  0  0  0  0  0  0  0  0  0
    2.0300   -2.1215    0.0000 N   0  0  0  0  0  0  0  0  0  0  0  0
    0.5752   -1.7560    0.0000 C   0  0  0  0  0  0  0  0  0  0  0  0
    0.4733   -0.2595    0.0000 N   0  0  0  0  0  0  0  0  0  0  0  0
    1.8650    0.3000    0.0000 C   0  0  0  0  0  0  0  0  0  0  0  0
   -0.5756   -2.7181    0.0000 C   0  0  0  0  0  0  0  0  0  0  0  0
   -1.9842   -2.2026    0.0000 C   0  0  0  0  0  0  0  0  0  0  0  0
   -2.2420   -0.7249    0.0000 N   0  0  0  0  0  0  0  0  0  0  0  0
   -3.6506   -0.2094    0.0000 C   0  0  0  0  0  0  0  0  0  0  0  0
   -3.9085    1.2683    0.0000 C   0  0  0  0  0  0  0  0  0  0  0  0
   -2.7577    2.2304    0.0000 O   0  0  0  0  0  0  0  0  0  0  0  0
   -5.3171    1.7839    0.0000 C   0  0  0  0  0  0  0  0  0  0  0  0
   -5.5749    3.2615    0.0000 C   0  0  0  0  0  0  0  0  0  0  0  0
   -6.9836    3.7771    0.0000 C   0  0  0  0  0  0  0  0  0  0  0  0
   -8.1343    2.8149    0.0000 C   0  0  0  0  0  0  0  0  0  0  0  0
   -7.8765    1.3373    0.0000 C   0  0  0  0  0  0  0  0  0  0  0  0
   -9.0273    0.3751    0.0000 Cl  0  0  0  0  0  0  0  0  0  0  0  0
   -6.4679    0.8217    0.0000 C   0  0  0  0  0  0  0  0  0  0  0  0
   -3.1350   -3.1647    0.0000 C   0  0  0  0  0  0  0  0  0  0  0  0
   -2.8771   -4.6424    0.0000 C   0  0  0  0  0  0  0  0  0  0  0  0
   -1.4685   -5.1579    0.0000 N   0  0  0  0  0  0  0  0  0  0  0  0
   -0.3177   -4.1958    0.0000 C   0  0  0  0  0  0  0  0  0  0  0  0
    1.0909   -4.7114    0.0000 O   0  0  0  0  0  0  0  0  0  0  0  0
    6.2981    1.0735    0.0000 N   0  0  0  0  0  0  0  0  0  0  0  0
    7.2602   -0.0773    0.0000 C   0  0  0  0  0  0  0  0  0  0  0  0
    8.7379    0.1805    0.0000 C   0  0  0  0  0  0  0  0  0  0  0  0
    9.2534    1.5891    0.0000 O   0  0  0  0  0  0  0  0  0  0  0  0
    8.2913    2.7399    0.0000 C   0  0  0  0  0  0  0  0  0  0  0  0
    6.8136    2.4821    0.0000 C   0  0  0  0  0  0  0  0  0  0  0  0
  1  2  1  0
  2  3  2  0
  2 10  1  0
  3  4  1  0
  4  5  2  0
  4 29  1  0
  5  6  1  0
  6  7  1  0
  6 10  2  0
  7  8  2  0
  8  9  1  0
  8 11  1  0
  9 10  1  0
 11 12  2  0
 11 27  1  0
 12 13  1  0
 12 24  1  0
 13 14  1  0
 14 15  1  0
 15 16  1  0
 15 17  1  0
 17 18  2  0
 17 23  1  0
 18 19  1  0
 19 20  2  0
 20 21  1  0
 21 22  1  0
 21 23  2  0
 24 25  2  0
 25 26  1  0
 26 27  1  0
 27 28  2  0
 29 30  1  0
 29 34  1  0
 30 31  1  0
 31 32  1  0
 32 33  1  0
 33 34  1  0
M  END
>  <s_m_entry_id>  (130) 
115

>  <s_m_entry_name>  (130) 
SIM_Broad_MProResults_ligprep.115

>  <Mol2_MolInfo_Name>  (130) 
11326

>  <Mol2_MolInfo_Type>  (130) 
SMALL

>  <Mol2_MolInfo_Charge>  (130) 
USER_CHARGES

>  <Mol2_Substructures>  (130) 
     1 UNK         1 GROUP             0       ****    0 ROOT    

>  <Name>  (130) 
11326

>  <s_m_Source_Path>  (130) 
/home/jgilaber/drug_learning/drug_learning/datasets/SARS2

>  <s_m_Source_File>  (130) 
SIM_Broad_MProResults_ligprep.sd

>  <i_m_Source_File_Index>  (130) 
115

>  <s_m_subgroup_title>  (130) 
SIM_Broad_MProResults_ligprep

>  <s_m_subgroupid>  (130) 
SIM_Broad_MProResults_ligprep

>  <b_m_subgroup_collapsed>  (130) 
0

$$$$
10330
     RDKit          2D

 22 24  0  0  1  0  0  0  0  0999 V2000
    4.9787   -2.1772    0.0000 O   0  0  0  0  0  0  0  0  0  0  0  0
    3.5847   -1.6232    0.0000 C   0  0  0  0  0  0  0  0  0  0  0  0
    2.4080   -2.5535    0.0000 C   0  0  0  0  0  0  0  0  0  0  0  0
    1.0141   -1.9996    0.0000 C   0  0  0  0  0  0  0  0  0  0  0  0
   -0.0108   -3.0948    0.0000 C   0  0  0  0  0  0  0  0  0  0  0  0
   -1.5062   -2.9764    0.0000 C   0  0  0  0  0  0  0  0  0  0  0  0
   -2.3459   -1.7334    0.0000 N   0  0  0  0  0  0  0  0  0  0  0  0
   -3.8301   -1.9507    0.0000 C   0  0  0  0  0  0  0  0  0  0  0  0
   -4.7603   -0.7740    0.0000 C   0  0  0  0  0  0  0  0  0  0  0  0
   -6.2445   -0.9913    0.0000 C   0  0  0  0  0  0  0  0  0  0  0  0
   -1.8977   -0.3020    0.0000 C   0  0  0  0  0  0  0  0  0  0  0  0
   -0.4990    0.2401    0.0000 C   0  0  0  0  0  0  0  0  0  0  0  0
   -0.3806    1.7354    0.0000 C   0  0  0  0  0  0  0  0  0  0  0  0
    0.9736    2.3805    0.0000 C   0  0  0  0  0  0  0  0  0  0  0  0
    1.0920    3.8758    0.0000 C   0  0  0  0  0  0  0  0  0  0  0  0
   -0.1437    4.7261    0.0000 C   0  0  0  0  0  0  0  0  0  0  0  0
   -1.4979    4.0810    0.0000 C   0  0  0  0  0  0  0  0  0  0  0  0
   -1.6164    2.5857    0.0000 C   0  0  0  0  0  0  0  0  0  0  0  0
    0.7968   -0.5154    0.0000 C   0  0  0  0  0  0  0  0  0  0  0  0
    1.9735    0.4149    0.0000 C   0  0  0  0  0  0  0  0  0  0  0  0
    3.3675   -0.1391    0.0000 C   0  0  0  0  0  0  0  0  0  0  0  0
    4.5442    0.7912    0.0000 O   0  0  0  0  0  0  0  0  0  0  0  0
  1  2  1  0
  2  3  2  0
  2 21  1  0
  3  4  1  0
  4  5  1  0
  4 19  2  0
  5  6  1  0
  6  7  1  0
  7  8  1  0
  7 11  1  0
  8  9  1  0
  9 10  2  0
 11 12  1  0
 12 13  1  0
 12 19  1  0
 13 14  2  0
 13 18  1  0
 14 15  1  0
 15 16  2  0
 16 17  1  0
 17 18  2  0
 19 20  1  0
 20 21  2  0
 21 22  1  0
M  END
>  <s_m_entry_id>  (131) 
58

>  <s_m_entry_name>  (131) 
SIM_Broad_MProResults_ligprep.58

>  <Mol2_MolInfo_Name>  (131) 
10330

>  <Mol2_MolInfo_Type>  (131) 
SMALL

>  <Mol2_MolInfo_Charge>  (131) 
USER_CHARGES

>  <Mol2_Substructures>  (131) 
     1 UNK         1 GROUP             0       ****    0 ROOT    

>  <Name>  (131) 
10330

>  <s_m_Source_Path>  (131) 
/home/jgilaber/drug_learning/drug_learning/datasets/SARS2

>  <s_m_Source_File>  (131) 
SIM_Broad_MProResults_ligprep.sd

>  <i_m_Source_File_Index>  (131) 
58

>  <s_m_subgroup_title>  (131) 
SIM_Broad_MProResults_ligprep

>  <s_m_subgroupid>  (131) 
SIM_Broad_MProResults_ligprep

>  <b_m_subgroup_collapsed>  (131) 
0

$$$$
12121
     RDKit          2D

 29 30  0  0  1  0  0  0  0  0999 V2000
  -16.1991    1.2128    0.0000 C   0  0  0  0  0  0  0  0  0  0  0  0
  -14.9818    0.3363    0.0000 C   0  0  0  0  0  0  0  0  0  0  0  0
  -13.6141    0.9523    0.0000 C   0  0  0  0  0  0  0  0  0  0  0  0
  -12.3968    0.0758    0.0000 C   0  0  0  0  0  0  0  0  0  0  0  0
  -11.0291    0.6918    0.0000 C   0  0  0  0  0  0  0  0  0  0  0  0
   -9.8118   -0.1847    0.0000 C   0  0  0  0  0  0  0  0  0  0  0  0
   -8.4441    0.4313    0.0000 C   0  0  0  0  0  0  0  0  0  0  0  0
   -7.2268   -0.4452    0.0000 C   0  0  0  0  0  0  0  0  0  0  0  0
   -5.8592    0.1708    0.0000 C   0  0  0  0  0  0  0  0  0  0  0  0
   -4.6419   -0.7057    0.0000 C   0  0  0  0  0  0  0  0  0  0  0  0
   -3.2742   -0.0897    0.0000 C   0  0  0  0  0  0  0  0  0  0  0  0
   -2.0569   -0.9662    0.0000 C   0  0  0  0  0  0  0  0  0  0  0  0
   -0.6892   -0.3502    0.0000 C   0  0  0  0  0  0  0  0  0  0  0  0
    0.5281   -1.2267    0.0000 C   0  0  0  0  0  0  0  0  0  0  0  0
    1.8958   -0.6107    0.0000 C   0  0  0  0  0  0  0  0  0  0  0  0
    3.1131   -1.4872    0.0000 C   0  0  0  0  0  0  0  0  0  0  0  0
    4.4808   -0.8712    0.0000 N   0  0  0  0  0  0  0  0  0  0  0  0
    5.7830   -1.6157    0.0000 C   0  0  0  0  0  0  0  0  0  0  0  0
    5.9462   -3.1068    0.0000 C   0  0  0  0  0  0  0  0  0  0  0  0
    6.8934   -0.6072    0.0000 N   0  0  0  0  0  0  0  0  0  0  0  0
    8.3620   -0.9128    0.0000 C   0  0  0  0  0  0  0  0  0  0  0  0
    9.3609    0.2062    0.0000 C   0  0  0  0  0  0  0  0  0  0  0  0
   10.8294   -0.0994    0.0000 C   0  0  0  0  0  0  0  0  0  0  0  0
   11.8283    1.0196    0.0000 C   0  0  0  0  0  0  0  0  0  0  0  0
   11.3587    2.4442    0.0000 C   0  0  0  0  0  0  0  0  0  0  0  0
    9.8902    2.7498    0.0000 C   0  0  0  0  0  0  0  0  0  0  0  0
    8.8913    1.6308    0.0000 C   0  0  0  0  0  0  0  0  0  0  0  0
    6.2775    0.7605    0.0000 C   0  0  0  0  0  0  0  0  0  0  0  0
    4.7864    0.5973    0.0000 C   0  0  0  0  0  0  0  0  0  0  0  0
  1  2  1  0
  2  3  1  0
  3  4  1  0
  4  5  1  0
  5  6  1  0
  6  7  1  0
  7  8  1  0
  8  9  1  0
  9 10  1  0
 10 11  1  0
 11 12  1  0
 12 13  1  0
 13 14  1  0
 14 15  1  0
 15 16  1  0
 16 17  1  0
 17 18  1  0
 17 29  1  0
 18 19  1  0
 18 20  1  0
 20 21  1  0
 20 28  1  0
 21 22  1  0
 22 23  2  0
 22 27  1  0
 23 24  1  0
 24 25  2  0
 25 26  1  0
 26 27  2  0
 28 29  2  0
M  END
>  <s_m_entry_id>  (132) 
150

>  <s_m_entry_name>  (132) 
SIM_Broad_MProResults_ligprep.150

>  <Mol2_MolInfo_Name>  (132) 
12121

>  <Mol2_MolInfo_Type>  (132) 
SMALL

>  <Mol2_MolInfo_Charge>  (132) 
USER_CHARGES

>  <Mol2_Substructures>  (132) 
     1 UNK         1 GROUP             0       ****    0 ROOT    

>  <Name>  (132) 
12121

>  <s_m_Source_Path>  (132) 
/home/jgilaber/drug_learning/drug_learning/datasets/SARS2

>  <s_m_Source_File>  (132) 
SIM_Broad_MProResults_ligprep.sd

>  <i_m_Source_File_Index>  (132) 
150

>  <s_m_subgroup_title>  (132) 
SIM_Broad_MProResults_ligprep

>  <s_m_subgroupid>  (132) 
SIM_Broad_MProResults_ligprep

>  <b_m_subgroup_collapsed>  (132) 
0

$$$$
9384
     RDKit          2D

 32 37  0  0  1  0  0  0  0  0999 V2000
  -11.4685    0.7195    0.0000 C   0  0  0  0  0  0  0  0  0  0  0  0
  -10.0045    0.3931    0.0000 N   0  0  0  0  0  0  0  0  0  0  0  0
   -8.9897    1.4978    0.0000 C   0  0  0  0  0  0  0  0  0  0  0  0
   -7.5257    1.1714    0.0000 C   0  0  0  0  0  0  0  0  0  0  0  0
   -7.0763   -0.2597    0.0000 N   0  0  0  0  0  0  0  0  0  0  0  0
   -8.0911   -1.3644    0.0000 C   0  0  0  0  0  0  0  0  0  0  0  0
   -9.5551   -1.0380    0.0000 C   0  0  0  0  0  0  0  0  0  0  0  0
   -5.6123   -0.5861    0.0000 C   0  0  0  0  0  0  0  0  0  0  0  0
   -5.1629   -2.0172    0.0000 C   0  0  0  0  0  0  0  0  0  0  0  0
   -3.6989   -2.3437    0.0000 C   0  0  0  0  0  0  0  0  0  0  0  0
   -2.6842   -1.2390    0.0000 C   0  0  0  0  0  0  0  0  0  0  0  0
   -1.1843   -1.2538    0.0000 N   0  0  0  0  0  0  0  0  0  0  0  0
   -0.7066    0.1681    0.0000 C   0  0  0  0  0  0  0  0  0  0  0  0
   -1.9113    1.0618    0.0000 N   0  0  0  0  0  0  0  0  0  0  0  0
   -3.1335    0.1922    0.0000 C   0  0  0  0  0  0  0  0  0  0  0  0
   -4.5976    0.5186    0.0000 C   0  0  0  0  0  0  0  0  0  0  0  0
    0.7245    0.6174    0.0000 C   0  0  0  0  0  0  0  0  0  0  0  0
    1.0509    2.0815    0.0000 C   0  0  0  0  0  0  0  0  0  0  0  0
    2.4820    2.5308    0.0000 C   0  0  0  0  0  0  0  0  0  0  0  0
    3.5867    1.5161    0.0000 C   0  0  0  0  0  0  0  0  0  0  0  0
    5.0800    1.6581    0.0000 N   0  0  0  0  0  0  0  0  0  0  0  0
    5.6765    0.2818    0.0000 C   0  0  0  0  0  0  0  0  0  0  0  0
    4.5519   -0.7108    0.0000 N   0  0  0  0  0  0  0  0  0  0  0  0
    3.2603    0.0521    0.0000 C   0  0  0  0  0  0  0  0  0  0  0  0
    1.8292   -0.3973    0.0000 C   0  0  0  0  0  0  0  0  0  0  0  0
    7.1405   -0.0446    0.0000 C   0  0  0  0  0  0  0  0  0  0  0  0
    7.5899   -1.4757    0.0000 C   0  0  0  0  0  0  0  0  0  0  0  0
    9.0539   -1.8022    0.0000 C   0  0  0  0  0  0  0  0  0  0  0  0
   10.0687   -0.6975    0.0000 C   0  0  0  0  0  0  0  0  0  0  0  0
   11.5327   -1.0239    0.0000 O   0  0  0  0  0  0  0  0  0  0  0  0
    9.6193    0.7337    0.0000 C   0  0  0  0  0  0  0  0  0  0  0  0
    8.1553    1.0601    0.0000 C   0  0  0  0  0  0  0  0  0  0  0  0
  1  2  1  0
  2  3  1  0
  2  7  1  0
  3  4  1  0
  4  5  1  0
  5  6  1  0
  5  8  1  0
  6  7  1  0
  8  9  2  0
  8 16  1  0
  9 10  1  0
 10 11  2  0
 11 12  1  0
 11 15  1  0
 12 13  2  0
 13 14  1  0
 13 17  1  0
 14 15  1  0
 15 16  2  0
 17 18  2  0
 17 25  1  0
 18 19  1  0
 19 20  2  0
 20 21  1  0
 20 24  1  0
 21 22  2  0
 22 23  1  0
 22 26  1  0
 23 24  1  0
 24 25  2  0
 26 27  2  0
 26 32  1  0
 27 28  1  0
 28 29  2  0
 29 30  1  0
 29 31  1  0
 31 32  2  0
M  CHG  1   2   1
M  END
>  <s_m_entry_id>  (133) 
288

>  <s_m_entry_name>  (133) 
SIM_Broad_MProResults_ligprep.288

>  <Mol2_MolInfo_Name>  (133) 
9384

>  <Mol2_MolInfo_Type>  (133) 
SMALL

>  <Mol2_MolInfo_Charge>  (133) 
USER_CHARGES

>  <Mol2_Substructures>  (133) 
     1 UNK         1 GROUP             0       ****    0 ROOT    

>  <Name>  (133) 
9384

>  <s_m_Source_Path>  (133) 
/home/jgilaber/drug_learning/drug_learning/datasets/SARS2

>  <s_m_Source_File>  (133) 
SIM_Broad_MProResults_ligprep.sd

>  <i_m_Source_File_Index>  (133) 
288

>  <s_m_subgroup_title>  (133) 
SIM_Broad_MProResults_ligprep

>  <s_m_subgroupid>  (133) 
SIM_Broad_MProResults_ligprep

>  <b_m_subgroup_collapsed>  (133) 
0

$$$$
4419
     RDKit          2D

 28 32  0  0  1  0  0  0  0  0999 V2000
   -9.5664   -0.6835    0.0000 O   0  0  0  0  0  0  0  0  0  0  0  0
   -8.4630    0.3326    0.0000 C   0  0  0  0  0  0  0  0  0  0  0  0
   -8.7913    1.7963    0.0000 O   0  0  0  0  0  0  0  0  0  0  0  0
   -7.0313   -0.1149    0.0000 C   0  0  0  0  0  0  0  0  0  0  0  0
   -5.9279    0.9013    0.0000 C   0  0  0  0  0  0  0  0  0  0  0  0
   -4.4962    0.4538    0.0000 C   0  0  0  0  0  0  0  0  0  0  0  0
   -3.3928    1.4699    0.0000 C   0  0  0  0  0  0  0  0  0  0  0  0
   -1.9611    1.0224    0.0000 C   0  0  0  0  0  0  0  0  0  0  0  0
   -1.6328   -0.4412    0.0000 C   0  0  0  0  0  0  0  0  0  0  0  0
   -2.7362   -1.4574    0.0000 C   0  0  0  0  0  0  0  0  0  0  0  0
   -4.1679   -1.0099    0.0000 C   0  0  0  0  0  0  0  0  0  0  0  0
   -0.2011   -0.8887    0.0000 C   0  0  0  0  0  0  0  0  0  0  0  0
    0.1272   -2.3524    0.0000 C   0  0  0  0  0  0  0  0  0  0  0  0
    1.5589   -2.7999    0.0000 C   0  0  0  0  0  0  0  0  0  0  0  0
    2.6623   -1.7838    0.0000 C   0  0  0  0  0  0  0  0  0  0  0  0
    4.0939   -2.2313    0.0000 O   0  0  0  0  0  0  0  0  0  0  0  0
    2.3340   -0.3201    0.0000 C   0  0  0  0  0  0  0  0  0  0  0  0
    0.9023    0.1274    0.0000 C   0  0  0  0  0  0  0  0  0  0  0  0
    3.4374    0.6960    0.0000 C   0  0  0  0  0  0  0  0  0  0  0  0
    4.8690    0.2485    0.0000 C   0  0  0  0  0  0  0  0  0  0  0  0
    5.9724    1.2646    0.0000 C   0  0  0  0  0  0  0  0  0  0  0  0
    5.6441    2.7283    0.0000 C   0  0  0  0  0  0  0  0  0  0  0  0
    4.2125    3.1758    0.0000 C   0  0  0  0  0  0  0  0  0  0  0  0
    4.1812   -0.1117    0.0000 C   0  0  0  0  0  0  0  0  0  0  0  0
    5.1973   -1.2151    0.0000 C   0  0  0  0  0  0  0  0  0  0  0  0
    6.3007   -0.1990    0.0000 C   0  0  0  0  0  0  0  0  0  0  0  0
    3.7657   -0.7676    0.0000 C   0  0  0  0  0  0  0  0  0  0  0  0
    3.1091    2.1596    0.0000 C   0  0  0  0  0  0  0  0  0  0  0  0
  1  2  1  0
  2  3  2  0
  2  4  1  0
  4  5  2  0
  5  6  1  0
  6  7  2  0
  6 11  1  0
  7  8  1  0
  8  9  2  0
  9 10  1  0
  9 12  1  0
 10 11  2  0
 12 13  2  0
 12 18  1  0
 13 14  1  0
 14 15  2  0
 15 16  1  0
 15 17  1  0
 17 18  2  0
 17 19  1  0
 19 20  1  0
 19 27  1  0
 19 28  1  0
 20 21  1  0
 21 22  1  0
 21 26  1  0
 22 23  1  0
 23 24  1  0
 23 28  1  0
 24 25  1  0
 25 26  1  0
 25 27  1  0
M  CHG  1   1  -1
M  END
>  <s_m_entry_id>  (134) 
202

>  <s_m_entry_name>  (134) 
SIM_Broad_MProResults_ligprep.202

>  <Mol2_MolInfo_Name>  (134) 
4419

>  <Mol2_MolInfo_Type>  (134) 
SMALL

>  <Mol2_MolInfo_Charge>  (134) 
USER_CHARGES

>  <Mol2_Substructures>  (134) 
     1 ****        1 GROUP             0       ****    0 ROOT    

>  <Name>  (134) 
4419

>  <s_m_Source_Path>  (134) 
/home/jgilaber/drug_learning/drug_learning/datasets/SARS2

>  <s_m_Source_File>  (134) 
SIM_Broad_MProResults_ligprep.sd

>  <i_m_Source_File_Index>  (134) 
202

>  <s_m_subgroup_title>  (134) 
SIM_Broad_MProResults_ligprep

>  <s_m_subgroupid>  (134) 
SIM_Broad_MProResults_ligprep

>  <b_m_subgroup_collapsed>  (134) 
0

$$$$
9982
     RDKit          2D

 20 22  0  0  1  0  0  0  0  0999 V2000
   -1.0680    3.6040    0.0000 O   0  0  0  0  0  0  0  0  0  0  0  0
   -1.3135    2.1242    0.0000 C   0  0  0  0  0  0  0  0  0  0  0  0
   -0.1547    1.1717    0.0000 C   0  0  0  0  0  0  0  0  0  0  0  0
   -0.4003   -0.3081    0.0000 C   0  0  0  0  0  0  0  0  0  0  0  0
    0.8875   -1.0773    0.0000 C   0  0  0  0  0  0  0  0  0  0  0  0
    1.0891   -2.5637    0.0000 C   0  0  0  0  0  0  0  0  0  0  0  0
    0.0526   -3.6480    0.0000 N   0  0  0  0  0  0  0  0  0  0  0  0
   -1.4414   -3.5137    0.0000 C   0  0  0  0  0  0  0  0  0  0  0  0
   -2.2679   -2.2620    0.0000 C   0  0  0  0  0  0  0  0  0  0  0  0
   -1.8045   -0.8353    0.0000 C   0  0  0  0  0  0  0  0  0  0  0  0
   -2.9633    0.1172    0.0000 C   0  0  0  0  0  0  0  0  0  0  0  0
   -4.3676   -0.4101    0.0000 Cl  0  0  0  0  0  0  0  0  0  0  0  0
   -2.7178    1.5970    0.0000 C   0  0  0  0  0  0  0  0  0  0  0  0
   -3.8765    2.5495    0.0000 O   0  0  0  0  0  0  0  0  0  0  0  0
    2.1393   -0.2507    0.0000 C   0  0  0  0  0  0  0  0  0  0  0  0
    3.4809   -0.9215    0.0000 C   0  0  0  0  0  0  0  0  0  0  0  0
    4.7327   -0.0950    0.0000 C   0  0  0  0  0  0  0  0  0  0  0  0
    4.6428    1.4023    0.0000 C   0  0  0  0  0  0  0  0  0  0  0  0
    3.3011    2.0731    0.0000 C   0  0  0  0  0  0  0  0  0  0  0  0
    2.0494    1.2466    0.0000 C   0  0  0  0  0  0  0  0  0  0  0  0
  1  2  1  0
  2  3  2  0
  2 13  1  0
  3  4  1  0
  4  5  1  0
  4 10  2  0
  5  6  1  0
  5 15  1  0
  6  7  1  0
  7  8  1  0
  8  9  1  0
  9 10  1  0
 10 11  1  0
 11 12  1  0
 11 13  2  0
 13 14  1  0
 15 16  2  0
 15 20  1  0
 16 17  1  0
 17 18  2  0
 18 19  1  0
 19 20  2  0
M  CHG  2   7   1  14  -1
M  END
>  <s_m_entry_id>  (135) 
360

>  <s_m_entry_name>  (135) 
SIM_Broad_MProResults_ligprep.360

>  <Mol2_MolInfo_Name>  (135) 
9982

>  <Mol2_MolInfo_Type>  (135) 
SMALL

>  <Mol2_MolInfo_Charge>  (135) 
USER_CHARGES

>  <Mol2_Substructures>  (135) 
     1 ****        1 GROUP             0       ****    0 ROOT    

>  <Name>  (135) 
9982

>  <s_m_Source_Path>  (135) 
/home/jgilaber/drug_learning/drug_learning/datasets/SARS2

>  <s_m_Source_File>  (135) 
SIM_Broad_MProResults_ligprep.sd

>  <i_m_Source_File_Index>  (135) 
360

>  <s_m_subgroup_title>  (135) 
SIM_Broad_MProResults_ligprep

>  <s_m_subgroupid>  (135) 
SIM_Broad_MProResults_ligprep

>  <b_m_subgroup_collapsed>  (135) 
0

$$$$
10767
     RDKit          2D

 60 68  0  0  1  0  0  0  0  0999 V2000
   -7.0105   -2.2012    0.0000 C   0  0  0  0  0  0  0  0  0  0  0  0
   -5.7153   -1.4447    0.0000 C   0  0  0  0  0  0  0  0  0  0  0  0
   -4.6311   -2.4813    0.0000 C   0  0  0  0  0  0  0  0  0  0  0  0
   -4.9867   -3.9385    0.0000 C   0  0  0  0  0  0  0  0  0  0  0  0
   -3.9025   -4.9751    0.0000 C   0  0  0  0  0  0  0  0  0  0  0  0
   -2.4627   -4.5545    0.0000 C   0  0  0  0  0  0  0  0  0  0  0  0
   -2.1071   -3.0973    0.0000 N   0  0  0  0  0  0  0  0  0  0  0  0
   -0.7862   -2.3865    0.0000 C   0  0  0  0  0  0  0  0  0  0  0  0
   -1.0540   -0.9106    0.0000 C   0  0  0  0  0  0  0  0  0  0  0  0
   -2.5404   -0.7092    0.0000 C   0  0  0  0  0  0  0  0  0  0  0  0
   -3.1913   -2.0607    0.0000 C   0  0  0  0  0  0  0  0  0  0  0  0
   -3.6191    0.3429    0.0000 C   0  0  0  0  0  0  0  0  0  0  0  0
   -2.9548    1.6878    0.0000 N   0  0  0  0  0  0  0  0  0  0  0  0
   -3.6524    3.0157    0.0000 C   0  0  0  0  0  0  0  0  0  0  0  0
   -1.4705    1.4716    0.0000 C   0  0  0  0  0  0  0  0  0  0  0  0
   -0.3166    2.4300    0.0000 C   0  0  0  0  0  0  0  0  0  0  0  0
    1.0904    1.9100    0.0000 C   0  0  0  0  0  0  0  0  0  0  0  0
    2.2442    2.8684    0.0000 O   0  0  0  0  0  0  0  0  0  0  0  0
    1.9911    4.3469    0.0000 C   0  0  0  0  0  0  0  0  0  0  0  0
    1.3435    0.4315    0.0000 C   0  0  0  0  0  0  0  0  0  0  0  0
    0.1896   -0.5269    0.0000 C   0  0  0  0  0  0  0  0  0  0  0  0
   -1.2174   -0.0069    0.0000 C   0  0  0  0  0  0  0  0  0  0  0  0
    2.7504   -0.0886    0.0000 C   0  0  0  0  0  0  0  0  0  0  0  0
    3.6402   -1.2962    0.0000 C   0  0  0  0  0  0  0  0  0  0  0  0
    5.0980   -1.6494    0.0000 C   0  0  0  0  0  0  0  0  0  0  0  0
    6.3363   -2.5242    0.0000 C   0  0  0  0  0  0  0  0  0  0  0  0
    7.7755   -2.1012    0.0000 C   0  0  0  0  0  0  0  0  0  0  0  0
    8.1287   -0.6433    0.0000 C   0  0  0  0  0  0  0  0  0  0  0  0
    7.0427    0.3914    0.0000 N   0  0  0  0  0  0  0  0  0  0  0  0
    6.6197    1.8306    0.0000 C   0  0  0  0  0  0  0  0  0  0  0  0
    5.3706    2.6611    0.0000 C   0  0  0  0  0  0  0  0  0  0  0  0
    3.8799    2.4944    0.0000 C   0  0  0  0  0  0  0  0  0  0  0  0
    2.8451    1.4084    0.0000 C   0  0  0  0  0  0  0  0  0  0  0  0
    1.4926    2.0570    0.0000 N   0  0  0  0  0  0  0  0  0  0  0  0
    1.6915    3.5438    0.0000 C   0  0  0  0  0  0  0  0  0  0  0  0
    0.7197    4.6864    0.0000 C   0  0  0  0  0  0  0  0  0  0  0  0
    1.2233    6.0993    0.0000 C   0  0  0  0  0  0  0  0  0  0  0  0
    2.6988    6.3696    0.0000 C   0  0  0  0  0  0  0  0  0  0  0  0
    3.6706    5.2270    0.0000 C   0  0  0  0  0  0  0  0  0  0  0  0
    3.1669    3.8141    0.0000 C   0  0  0  0  0  0  0  0  0  0  0  0
    6.4418   -0.9829    0.0000 C   0  0  0  0  0  0  0  0  0  0  0  0
    8.8614   -3.1360    0.0000 C   0  0  0  0  0  0  0  0  0  0  0  0
    9.9473   -4.1708    0.0000 C   0  0  0  0  0  0  0  0  0  0  0  0
    9.8962   -2.0500    0.0000 F   0  0  0  0  0  0  0  0  0  0  0  0
    7.8266   -4.2219    0.0000 F   0  0  0  0  0  0  0  0  0  0  0  0
    1.8487   -1.2873    0.0000 C   0  0  0  0  0  0  0  0  0  0  0  0
    0.3600   -1.4714    0.0000 O   0  0  0  0  0  0  0  0  0  0  0  0
    2.4359   -2.6675    0.0000 O   0  0  0  0  0  0  0  0  0  0  0  0
    1.5342   -3.8662    0.0000 C   0  0  0  0  0  0  0  0  0  0  0  0
   -5.0950    0.0751    0.0000 C   0  0  0  0  0  0  0  0  0  0  0  0
   -5.1024    1.5750    0.0000 O   0  0  0  0  0  0  0  0  0  0  0  0
   -5.6010   -1.3370    0.0000 C   0  0  0  0  0  0  0  0  0  0  0  0
   -7.0769   -1.6048    0.0000 O   0  0  0  0  0  0  0  0  0  0  0  0
   -8.0468   -0.4606    0.0000 C   0  0  0  0  0  0  0  0  0  0  0  0
   -7.8975    1.0320    0.0000 O   0  0  0  0  0  0  0  0  0  0  0  0
   -9.5227   -0.7284    0.0000 C   0  0  0  0  0  0  0  0  0  0  0  0
   -6.5735    0.3282    0.0000 C   0  0  0  0  0  0  0  0  0  0  0  0
   -7.9615   -0.2405    0.0000 O   0  0  0  0  0  0  0  0  0  0  0  0
   -7.0935    1.7351    0.0000 O   0  0  0  0  0  0  0  0  0  0  0  0
   -8.5720    1.9883    0.0000 C   0  0  0  0  0  0  0  0  0  0  0  0
  1  2  1  0
  2  3  1  0
  3  4  1  0
  3 11  1  0
  3 52  1  0
  4  5  2  0
  5  6  1  0
  6  7  1  0
  7  8  1  0
  7 11  1  0
  8  9  1  0
  9 10  1  0
 10 11  1  0
 10 12  1  0
 10 22  1  0
 12 13  1  0
 12 50  1  0
 13 14  1  0
 13 15  1  0
 15 16  1  0
 15 22  2  0
 16 17  2  0
 17 18  1  0
 17 20  1  0
 18 19  1  0
 20 21  2  0
 20 23  1  0
 21 22  1  0
 23 24  1  0
 23 33  1  0
 23 46  1  0
 24 25  1  0
 25 26  1  0
 25 41  1  0
 26 27  1  0
 27 28  1  0
 27 42  1  0
 28 29  1  0
 29 30  1  0
 29 41  1  0
 30 31  1  0
 31 32  1  0
 32 33  2  0
 32 40  1  0
 33 34  1  0
 34 35  1  0
 35 36  1  0
 35 40  2  0
 36 37  2  0
 37 38  1  0
 38 39  2  0
 39 40  1  0
 42 43  1  0
 42 44  1  0
 42 45  1  0
 46 47  2  0
 46 48  1  0
 48 49  1  0
 50 51  1  0
 50 52  1  0
 50 57  1  0
 52 53  1  0
 53 54  1  0
 54 55  2  0
 54 56  1  0
 57 58  2  0
 57 59  1  0
 59 60  1  0
M  CHG  1  29   1
M  END
>  <s_m_entry_id>  (136) 
87

>  <s_m_entry_name>  (136) 
SIM_Broad_MProResults_ligprep.87

>  <Mol2_MolInfo_Name>  (136) 
10767

>  <Mol2_MolInfo_Type>  (136) 
SMALL

>  <Mol2_MolInfo_Charge>  (136) 
USER_CHARGES

>  <Mol2_Substructures>  (136) 
     1 UNK         1 GROUP             0       ****    0 ROOT    

>  <Name>  (136) 
10767

>  <s_m_Source_Path>  (136) 
/home/jgilaber/drug_learning/drug_learning/datasets/SARS2

>  <s_m_Source_File>  (136) 
SIM_Broad_MProResults_ligprep.sd

>  <i_m_Source_File_Index>  (136) 
87

>  <s_m_subgroup_title>  (136) 
SIM_Broad_MProResults_ligprep

>  <s_m_subgroupid>  (136) 
SIM_Broad_MProResults_ligprep

>  <b_m_subgroup_collapsed>  (136) 
0

$$$$
11988
     RDKit          2D

 19 21  0  0  1  0  0  0  0  0999 V2000
   -3.3521    3.7896    0.0000 C   0  0  0  0  0  0  0  0  0  0  0  0
   -2.0269    3.0869    0.0000 O   0  0  0  0  0  0  0  0  0  0  0  0
   -1.9728    1.5879    0.0000 C   0  0  0  0  0  0  0  0  0  0  0  0
   -3.2440    0.7916    0.0000 C   0  0  0  0  0  0  0  0  0  0  0  0
   -3.1900   -0.7074    0.0000 C   0  0  0  0  0  0  0  0  0  0  0  0
   -1.8648   -1.4102    0.0000 C   0  0  0  0  0  0  0  0  0  0  0  0
   -1.8108   -2.9092    0.0000 O   0  0  0  0  0  0  0  0  0  0  0  0
   -3.0820   -3.7055    0.0000 C   0  0  0  0  0  0  0  0  0  0  0  0
   -0.5936   -0.6139    0.0000 C   0  0  0  0  0  0  0  0  0  0  0  0
    0.7316   -1.3166    0.0000 C   0  0  0  0  0  0  0  0  0  0  0  0
    0.7856   -2.8156    0.0000 S   0  0  0  0  0  0  0  0  0  0  0  0
    2.0028   -0.5203    0.0000 C   0  0  0  0  0  0  0  0  0  0  0  0
    3.3280   -1.2230    0.0000 C   0  0  0  0  0  0  0  0  0  0  0  0
    4.5992   -0.4267    0.0000 C   0  0  0  0  0  0  0  0  0  0  0  0
    4.5451    1.0723    0.0000 C   0  0  0  0  0  0  0  0  0  0  0  0
    3.2199    1.7750    0.0000 C   0  0  0  0  0  0  0  0  0  0  0  0
    1.9488    0.9787    0.0000 C   0  0  0  0  0  0  0  0  0  0  0  0
    0.6236    1.6814    0.0000 N   0  0  0  0  0  0  0  0  0  0  0  0
   -0.6476    0.8851    0.0000 C   0  0  0  0  0  0  0  0  0  0  0  0
  1  2  1  0
  2  3  1  0
  3  4  2  0
  3 19  1  0
  4  5  1  0
  5  6  2  0
  6  7  1  0
  6  9  1  0
  7  8  1  0
  9 10  1  0
  9 19  2  0
 10 11  2  0
 10 12  1  0
 12 13  1  0
 12 17  2  0
 13 14  2  0
 14 15  1  0
 15 16  2  0
 16 17  1  0
 17 18  1  0
 18 19  1  0
M  END
>  <s_m_entry_id>  (137) 
147

>  <s_m_entry_name>  (137) 
SIM_Broad_MProResults_ligprep.147

>  <Mol2_MolInfo_Name>  (137) 
11988

>  <Mol2_MolInfo_Type>  (137) 
SMALL

>  <Mol2_MolInfo_Charge>  (137) 
USER_CHARGES

>  <Mol2_Substructures>  (137) 
     1 UNK         1 GROUP             0       ****    0 ROOT    

>  <Name>  (137) 
11988

>  <s_m_Source_Path>  (137) 
/home/jgilaber/drug_learning/drug_learning/datasets/SARS2

>  <s_m_Source_File>  (137) 
SIM_Broad_MProResults_ligprep.sd

>  <i_m_Source_File_Index>  (137) 
147

>  <s_m_subgroup_title>  (137) 
SIM_Broad_MProResults_ligprep

>  <s_m_subgroupid>  (137) 
SIM_Broad_MProResults_ligprep

>  <b_m_subgroup_collapsed>  (137) 
0

$$$$
458
     RDKit          2D

 26 28  0  0  1  0  0  0  0  0999 V2000
    4.4279   -4.1388    0.0000 C   0  0  0  0  0  0  0  0  0  0  0  0
    3.8897   -2.7387    0.0000 S   0  0  0  0  0  0  0  0  0  0  0  0
    2.4895   -3.2769    0.0000 O   0  0  0  0  0  0  0  0  0  0  0  0
    5.2898   -2.2005    0.0000 O   0  0  0  0  0  0  0  0  0  0  0  0
    3.3515   -1.3386    0.0000 N   0  0  0  0  0  0  0  0  0  0  0  0
    1.8698   -1.1046    0.0000 C   0  0  0  0  0  0  0  0  0  0  0  0
    0.9264   -2.2707    0.0000 C   0  0  0  0  0  0  0  0  0  0  0  0
   -0.5553   -2.0368    0.0000 C   0  0  0  0  0  0  0  0  0  0  0  0
   -1.4987   -3.2029    0.0000 O   0  0  0  0  0  0  0  0  0  0  0  0
   -2.9803   -2.9690    0.0000 C   0  0  0  0  0  0  0  0  0  0  0  0
   -3.5185   -1.5688    0.0000 C   0  0  0  0  0  0  0  0  0  0  0  0
   -5.0002   -1.3349    0.0000 N   0  0  0  0  0  0  0  0  0  0  0  0
   -5.5384    0.0653    0.0000 C   0  0  0  0  0  0  0  0  0  0  0  0
   -7.0200    0.2992    0.0000 O   0  0  0  0  0  0  0  0  0  0  0  0
   -2.5751   -0.4027    0.0000 C   0  0  0  0  0  0  0  0  0  0  0  0
   -3.1133    0.9974    0.0000 O   0  0  0  0  0  0  0  0  0  0  0  0
   -1.0935   -0.6366    0.0000 C   0  0  0  0  0  0  0  0  0  0  0  0
   -0.1500    0.5295    0.0000 C   0  0  0  0  0  0  0  0  0  0  0  0
    1.3316    0.2955    0.0000 C   0  0  0  0  0  0  0  0  0  0  0  0
    2.2751    1.4617    0.0000 O   0  0  0  0  0  0  0  0  0  0  0  0
    1.7369    2.8618    0.0000 C   0  0  0  0  0  0  0  0  0  0  0  0
    2.6803    4.0280    0.0000 C   0  0  0  0  0  0  0  0  0  0  0  0
    2.1421    5.4281    0.0000 C   0  0  0  0  0  0  0  0  0  0  0  0
    0.6605    5.6621    0.0000 C   0  0  0  0  0  0  0  0  0  0  0  0
   -0.2830    4.4959    0.0000 C   0  0  0  0  0  0  0  0  0  0  0  0
    0.2552    3.0958    0.0000 C   0  0  0  0  0  0  0  0  0  0  0  0
  1  2  1  0
  2  3  2  0
  2  4  2  0
  2  5  1  0
  5  6  1  0
  6  7  2  0
  6 19  1  0
  7  8  1  0
  8  9  1  0
  8 17  2  0
  9 10  1  0
 10 11  2  0
 11 12  1  0
 11 15  1  0
 12 13  1  0
 13 14  2  0
 15 16  2  0
 15 17  1  0
 17 18  1  0
 18 19  2  0
 19 20  1  0
 20 21  1  0
 21 22  2  0
 21 26  1  0
 22 23  1  0
 23 24  2  0
 24 25  1  0
 25 26  2  0
M  END
>  <s_m_entry_id>  (138) 
180

>  <s_m_entry_name>  (138) 
SIM_Broad_MProResults_ligprep.180

>  <Mol2_MolInfo_Name>  (138) 
458

>  <Mol2_MolInfo_Type>  (138) 
SMALL

>  <Mol2_MolInfo_Charge>  (138) 
USER_CHARGES

>  <Mol2_Substructures>  (138) 
     1 ****        1 GROUP             0       ****    0 ROOT    

>  <Name>  (138) 
458

>  <s_m_Source_Path>  (138) 
/home/jgilaber/drug_learning/drug_learning/datasets/SARS2

>  <s_m_Source_File>  (138) 
SIM_Broad_MProResults_ligprep.sd

>  <i_m_Source_File_Index>  (138) 
180

>  <s_m_subgroup_title>  (138) 
SIM_Broad_MProResults_ligprep

>  <s_m_subgroupid>  (138) 
SIM_Broad_MProResults_ligprep

>  <b_m_subgroup_collapsed>  (138) 
0

$$$$
402
     RDKit          2D

 25 26  0  0  1  0  0  0  0  0999 V2000
   -5.5467   -0.7221    0.0000 C   0  0  0  0  0  0  0  0  0  0  0  0
   -4.4160    0.2636    0.0000 O   0  0  0  0  0  0  0  0  0  0  0  0
   -2.9971   -0.2228    0.0000 C   0  0  0  0  0  0  0  0  0  0  0  0
   -2.7088   -1.6949    0.0000 O   0  0  0  0  0  0  0  0  0  0  0  0
   -1.8664    0.7628    0.0000 C   0  0  0  0  0  0  0  0  0  0  0  0
   -2.1546    2.2349    0.0000 C   0  0  0  0  0  0  0  0  0  0  0  0
   -3.5736    2.7213    0.0000 C   0  0  0  0  0  0  0  0  0  0  0  0
   -1.0239    3.2205    0.0000 N   0  0  0  0  0  0  0  0  0  0  0  0
    0.3950    2.7341    0.0000 C   0  0  0  0  0  0  0  0  0  0  0  0
    0.6833    1.2621    0.0000 C   0  0  0  0  0  0  0  0  0  0  0  0
   -0.4474    0.2764    0.0000 C   0  0  0  0  0  0  0  0  0  0  0  0
   -0.1592   -1.1956    0.0000 C   0  0  0  0  0  0  0  0  0  0  0  0
   -1.2899   -2.1813    0.0000 C   0  0  0  0  0  0  0  0  0  0  0  0
   -1.0016   -3.6533    0.0000 C   0  0  0  0  0  0  0  0  0  0  0  0
    0.4173   -4.1397    0.0000 C   0  0  0  0  0  0  0  0  0  0  0  0
    1.5480   -3.1540    0.0000 C   0  0  0  0  0  0  0  0  0  0  0  0
    1.2598   -1.6820    0.0000 C   0  0  0  0  0  0  0  0  0  0  0  0
    2.3905   -0.6963    0.0000 N   0  0  0  0  0  0  0  0  0  0  0  0
    3.8094   -1.1827    0.0000 O   0  0  0  0  0  0  0  0  0  0  0  0
    2.4311    0.0998    0.0000 O   0  0  0  0  0  0  0  0  0  0  0  0
    2.1022    0.7757    0.0000 C   0  0  0  0  0  0  0  0  0  0  0  0
    2.7381   -0.5828    0.0000 O   0  0  0  0  0  0  0  0  0  0  0  0
    3.2329    1.7614    0.0000 O   0  0  0  0  0  0  0  0  0  0  0  0
    4.6519    1.2750    0.0000 C   0  0  0  0  0  0  0  0  0  0  0  0
    1.5257    3.7198    0.0000 C   0  0  0  0  0  0  0  0  0  0  0  0
  1  2  1  0
  2  3  1  0
  3  4  2  0
  3  5  1  0
  5  6  2  0
  5 11  1  0
  6  7  1  0
  6  8  1  0
  8  9  1  0
  9 10  2  0
  9 25  1  0
 10 11  1  0
 10 21  1  0
 11 12  1  0
 12 13  2  0
 12 17  1  0
 13 14  1  0
 14 15  2  0
 15 16  1  0
 16 17  2  0
 17 18  1  0
 18 19  1  0
 18 20  2  0
 21 22  2  0
 21 23  1  0
 23 24  1  0
M  CHG  2  18   1  19  -1
M  END
>  <s_m_entry_id>  (139) 
176

>  <s_m_entry_name>  (139) 
SIM_Broad_MProResults_ligprep.176

>  <Mol2_MolInfo_Name>  (139) 
402

>  <Mol2_MolInfo_Type>  (139) 
SMALL

>  <Mol2_MolInfo_Charge>  (139) 
USER_CHARGES

>  <Mol2_Substructures>  (139) 
     1 ****        1 GROUP             0       ****    0 ROOT    

>  <Name>  (139) 
402

>  <s_m_Source_Path>  (139) 
/home/jgilaber/drug_learning/drug_learning/datasets/SARS2

>  <s_m_Source_File>  (139) 
SIM_Broad_MProResults_ligprep.sd

>  <i_m_Source_File_Index>  (139) 
176

>  <s_m_subgroup_title>  (139) 
SIM_Broad_MProResults_ligprep

>  <s_m_subgroupid>  (139) 
SIM_Broad_MProResults_ligprep

>  <b_m_subgroup_collapsed>  (139) 
0

$$$$
118
     RDKit          2D

 24 26  0  0  1  0  0  0  0  0999 V2000
   -8.5505   -0.5131    0.0000 C   0  0  0  0  0  0  0  0  0  0  0  0
   -7.2498   -1.2602    0.0000 O   0  0  0  0  0  0  0  0  0  0  0  0
   -5.9524   -0.5073    0.0000 C   0  0  0  0  0  0  0  0  0  0  0  0
   -5.9558    0.9927    0.0000 C   0  0  0  0  0  0  0  0  0  0  0  0
   -4.6584    1.7457    0.0000 C   0  0  0  0  0  0  0  0  0  0  0  0
   -3.3577    0.9986    0.0000 C   0  0  0  0  0  0  0  0  0  0  0  0
   -1.9322    1.4653    0.0000 N   0  0  0  0  0  0  0  0  0  0  0  0
   -1.0478    0.2538    0.0000 C   0  0  0  0  0  0  0  0  0  0  0  0
   -1.9267   -0.9617    0.0000 N   0  0  0  0  0  0  0  0  0  0  0  0
   -3.3544   -0.5014    0.0000 C   0  0  0  0  0  0  0  0  0  0  0  0
   -4.6517   -1.2543    0.0000 C   0  0  0  0  0  0  0  0  0  0  0  0
    0.4522    0.2571    0.0000 S   0  0  0  0  0  0  0  0  0  0  0  0
    1.1993    1.5579    0.0000 O   0  0  0  0  0  0  0  0  0  0  0  0
    1.2051   -1.0402    0.0000 C   0  0  0  0  0  0  0  0  0  0  0  0
    2.7051   -1.0368    0.0000 C   0  0  0  0  0  0  0  0  0  0  0  0
    3.4580   -2.3342    0.0000 N   0  0  0  0  0  0  0  0  0  0  0  0
    4.9580   -2.3308    0.0000 C   0  0  0  0  0  0  0  0  0  0  0  0
    5.7051   -1.0301    0.0000 C   0  0  0  0  0  0  0  0  0  0  0  0
    7.2051   -1.0267    0.0000 C   0  0  0  0  0  0  0  0  0  0  0  0
    4.9522    0.2673    0.0000 C   0  0  0  0  0  0  0  0  0  0  0  0
    5.6993    1.5680    0.0000 O   0  0  0  0  0  0  0  0  0  0  0  0
    4.9464    2.8653    0.0000 C   0  0  0  0  0  0  0  0  0  0  0  0
    3.4522    0.2639    0.0000 C   0  0  0  0  0  0  0  0  0  0  0  0
    2.6993    1.5612    0.0000 C   0  0  0  0  0  0  0  0  0  0  0  0
  1  2  1  0
  2  3  1  0
  3  4  2  0
  3 11  1  0
  4  5  1  0
  5  6  2  0
  6  7  1  0
  6 10  1  0
  7  8  1  0
  8  9  2  0
  8 12  1  0
  9 10  1  0
 10 11  2  0
 12 13  2  0
 12 14  1  0
 14 15  1  0
 15 16  1  0
 15 23  2  0
 16 17  1  0
 17 18  2  0
 18 19  1  0
 18 20  1  0
 20 21  1  0
 20 23  1  0
 21 22  1  0
 23 24  1  0
M  END
>  <s_m_entry_id>  (140) 
173

>  <s_m_entry_name>  (140) 
SIM_Broad_MProResults_ligprep.173

>  <Mol2_MolInfo_Name>  (140) 
118

>  <Mol2_MolInfo_Type>  (140) 
SMALL

>  <Mol2_MolInfo_Charge>  (140) 
USER_CHARGES

>  <Mol2_Substructures>  (140) 
     1 ****        1 GROUP             0       ****    0 ROOT    

>  <Name>  (140) 
118

>  <s_m_Source_Path>  (140) 
/home/jgilaber/drug_learning/drug_learning/datasets/SARS2

>  <s_m_Source_File>  (140) 
SIM_Broad_MProResults_ligprep.sd

>  <i_m_Source_File_Index>  (140) 
173

>  <s_m_subgroup_title>  (140) 
SIM_Broad_MProResults_ligprep

>  <s_m_subgroupid>  (140) 
SIM_Broad_MProResults_ligprep

>  <b_m_subgroup_collapsed>  (140) 
0

$$$$
5489
     RDKit          2D

 12 13  0  0  1  0  0  0  0  0999 V2000
   -4.3264   -1.0634    0.0000 N   0  0  0  0  0  0  0  0  0  0  0  0
   -3.0299   -0.3091    0.0000 C   0  0  0  0  0  0  0  0  0  0  0  0
   -1.6576   -0.9145    0.0000 C   0  0  0  0  0  0  0  0  0  0  0  0
   -0.6576    0.2036    0.0000 N   0  0  0  0  0  0  0  0  0  0  0  0
   -1.4120    1.5001    0.0000 N   0  0  0  0  0  0  0  0  0  0  0  0
   -2.8782    1.1832    0.0000 O   0  0  0  0  0  0  0  0  0  0  0  0
    0.8347    0.0518    0.0000 N   0  0  0  0  0  0  0  0  0  0  0  0
    1.4494   -1.3165    0.0000 C   0  0  0  0  0  0  0  0  0  0  0  0
    2.9417   -1.4682    0.0000 C   0  0  0  0  0  0  0  0  0  0  0  0
    3.8193   -0.2517    0.0000 O   0  0  0  0  0  0  0  0  0  0  0  0
    3.2045    1.1165    0.0000 C   0  0  0  0  0  0  0  0  0  0  0  0
    1.7122    1.2683    0.0000 C   0  0  0  0  0  0  0  0  0  0  0  0
  1  2  1  0
  2  3  2  0
  2  6  1  0
  3  4  1  0
  4  5  1  0
  4  7  1  0
  5  6  1  0
  7  8  1  0
  7 12  1  0
  8  9  1  0
  9 10  1  0
 10 11  1  0
 11 12  1  0
M  END
>  <s_m_entry_id>  (141) 
203

>  <s_m_entry_name>  (141) 
SIM_Broad_MProResults_ligprep.203

>  <Mol2_MolInfo_Name>  (141) 
5489

>  <Mol2_MolInfo_Type>  (141) 
SMALL

>  <Mol2_MolInfo_Charge>  (141) 
USER_CHARGES

>  <Mol2_Substructures>  (141) 
     1 ****        1 GROUP             0       ****    0 ROOT    

>  <Name>  (141) 
5489

>  <s_m_Source_Path>  (141) 
/home/jgilaber/drug_learning/drug_learning/datasets/SARS2

>  <s_m_Source_File>  (141) 
SIM_Broad_MProResults_ligprep.sd

>  <i_m_Source_File_Index>  (141) 
203

>  <s_m_subgroup_title>  (141) 
SIM_Broad_MProResults_ligprep

>  <s_m_subgroupid>  (141) 
SIM_Broad_MProResults_ligprep

>  <b_m_subgroup_collapsed>  (141) 
0

$$$$
12161
     RDKit          2D

 24 28  0  0  1  0  0  0  0  0999 V2000
    0.0997   -4.2410    0.0000 N   0  0  0  0  0  0  0  0  0  0  0  0
    1.2758   -3.3100    0.0000 C   0  0  0  0  0  0  0  0  0  0  0  0
    1.0576   -1.8259    0.0000 C   0  0  0  0  0  0  0  0  0  0  0  0
   -0.3368   -1.2729    0.0000 O   0  0  0  0  0  0  0  0  0  0  0  0
   -0.5550    0.2111    0.0000 C   0  0  0  0  0  0  0  0  0  0  0  0
    0.6211    1.1421    0.0000 C   0  0  0  0  0  0  0  0  0  0  0  0
    2.0154    0.5891    0.0000 C   0  0  0  0  0  0  0  0  0  0  0  0
    3.1915    1.5202    0.0000 C   0  0  0  0  0  0  0  0  0  0  0  0
    2.9733    3.0042    0.0000 O   0  0  0  0  0  0  0  0  0  0  0  0
    4.5858    0.9671    0.0000 C   0  0  0  0  0  0  0  0  0  0  0  0
    5.7619    1.8982    0.0000 O   0  0  0  0  0  0  0  0  0  0  0  0
    4.8041   -0.5169    0.0000 C   0  0  0  0  0  0  0  0  0  0  0  0
    3.6280   -1.4479    0.0000 C   0  0  0  0  0  0  0  0  0  0  0  0
    2.2337   -0.8949    0.0000 C   0  0  0  0  0  0  0  0  0  0  0  0
   -1.9493    0.7641    0.0000 C   0  0  0  0  0  0  0  0  0  0  0  0
   -3.1254   -0.1669    0.0000 C   0  0  0  0  0  0  0  0  0  0  0  0
   -4.5198    0.3861    0.0000 C   0  0  0  0  0  0  0  0  0  0  0  0
   -4.7380    1.8702    0.0000 C   0  0  0  0  0  0  0  0  0  0  0  0
   -3.5619    2.8012    0.0000 C   0  0  0  0  0  0  0  0  0  0  0  0
   -2.3542   -0.2566    0.0000 C   0  0  0  0  0  0  0  0  0  0  0  0
   -2.9072   -1.6509    0.0000 C   0  0  0  0  0  0  0  0  0  0  0  0
   -4.3015   -1.0979    0.0000 C   0  0  0  0  0  0  0  0  0  0  0  0
   -1.7311   -0.7199    0.0000 C   0  0  0  0  0  0  0  0  0  0  0  0
   -2.1676    2.2482    0.0000 C   0  0  0  0  0  0  0  0  0  0  0  0
  1  2  1  0
  2  3  1  0
  3  4  1  0
  3 14  1  0
  4  5  1  0
  5  6  1  0
  5 15  1  0
  6  7  1  0
  7  8  1  0
  7 14  2  0
  8  9  1  0
  8 10  2  0
 10 11  1  0
 10 12  1  0
 12 13  2  0
 13 14  1  0
 15 16  1  0
 15 23  1  0
 15 24  1  0
 16 17  1  0
 17 18  1  0
 17 22  1  0
 18 19  1  0
 19 20  1  0
 19 24  1  0
 20 21  1  0
 21 22  1  0
 21 23  1  0
M  CHG  1   1   1
M  END
>  <s_m_entry_id>  (142) 
151

>  <s_m_entry_name>  (142) 
SIM_Broad_MProResults_ligprep.151

>  <Mol2_MolInfo_Name>  (142) 
12161

>  <Mol2_MolInfo_Type>  (142) 
SMALL

>  <Mol2_MolInfo_Charge>  (142) 
USER_CHARGES

>  <Mol2_Substructures>  (142) 
     1 UNK         1 GROUP             0       ****    0 ROOT    

>  <Name>  (142) 
12161

>  <s_m_Source_Path>  (142) 
/home/jgilaber/drug_learning/drug_learning/datasets/SARS2

>  <s_m_Source_File>  (142) 
SIM_Broad_MProResults_ligprep.sd

>  <i_m_Source_File_Index>  (142) 
151

>  <s_m_subgroup_title>  (142) 
SIM_Broad_MProResults_ligprep

>  <s_m_subgroupid>  (142) 
SIM_Broad_MProResults_ligprep

>  <b_m_subgroup_collapsed>  (142) 
0

$$$$
7318
     RDKit          2D

 18 19  0  0  1  0  0  0  0  0999 V2000
   -7.6697    0.5158    0.0000 C   0  0  0  0  0  0  0  0  0  0  0  0
   -6.1993    0.8121    0.0000 C   0  0  0  0  0  0  0  0  0  0  0  0
   -5.2074   -0.3132    0.0000 O   0  0  0  0  0  0  0  0  0  0  0  0
   -3.7370   -0.0169    0.0000 C   0  0  0  0  0  0  0  0  0  0  0  0
   -3.2584    1.4047    0.0000 O   0  0  0  0  0  0  0  0  0  0  0  0
   -2.7451   -1.1422    0.0000 C   0  0  0  0  0  0  0  0  0  0  0  0
   -1.2747   -0.8458    0.0000 C   0  0  0  0  0  0  0  0  0  0  0  0
   -0.7961    0.5758    0.0000 C   0  0  0  0  0  0  0  0  0  0  0  0
    0.6743    0.8721    0.0000 C   0  0  0  0  0  0  0  0  0  0  0  0
    1.6662   -0.2532    0.0000 C   0  0  0  0  0  0  0  0  0  0  0  0
    1.1876   -1.6748    0.0000 C   0  0  0  0  0  0  0  0  0  0  0  0
   -0.2829   -1.9711    0.0000 C   0  0  0  0  0  0  0  0  0  0  0  0
    3.1366    0.0431    0.0000 C   0  0  0  0  0  0  0  0  0  0  0  0
    4.1285   -1.0821    0.0000 C   0  0  0  0  0  0  0  0  0  0  0  0
    5.5989   -0.7858    0.0000 C   0  0  0  0  0  0  0  0  0  0  0  0
    6.0775    0.6358    0.0000 C   0  0  0  0  0  0  0  0  0  0  0  0
    5.0857    1.7610    0.0000 C   0  0  0  0  0  0  0  0  0  0  0  0
    3.6152    1.4647    0.0000 C   0  0  0  0  0  0  0  0  0  0  0  0
  1  2  1  0
  2  3  1  0
  3  4  1  0
  4  5  2  0
  4  6  1  0
  6  7  1  0
  7  8  2  0
  7 12  1  0
  8  9  1  0
  9 10  2  0
 10 11  1  0
 10 13  1  0
 11 12  2  0
 13 14  2  0
 13 18  1  0
 14 15  1  0
 15 16  2  0
 16 17  1  0
 17 18  2  0
M  END
>  <s_m_entry_id>  (143) 
274

>  <s_m_entry_name>  (143) 
SIM_Broad_MProResults_ligprep.274

>  <Mol2_MolInfo_Name>  (143) 
7318

>  <Mol2_MolInfo_Type>  (143) 
SMALL

>  <Mol2_MolInfo_Charge>  (143) 
USER_CHARGES

>  <Mol2_Substructures>  (143) 
     1 UNK         1 GROUP             0       ****    0 ROOT    

>  <Name>  (143) 
7318

>  <s_m_Source_Path>  (143) 
/home/jgilaber/drug_learning/drug_learning/datasets/SARS2

>  <s_m_Source_File>  (143) 
SIM_Broad_MProResults_ligprep.sd

>  <i_m_Source_File_Index>  (143) 
274

>  <s_m_subgroup_title>  (143) 
SIM_Broad_MProResults_ligprep

>  <s_m_subgroupid>  (143) 
SIM_Broad_MProResults_ligprep

>  <b_m_subgroup_collapsed>  (143) 
0

$$$$
8718
     RDKit          2D

 22 24  0  0  1  0  0  0  0  0999 V2000
   -6.7342    0.0636    0.0000 C   0  0  0  0  0  0  0  0  0  0  0  0
   -5.4660   -0.7375    0.0000 C   0  0  0  0  0  0  0  0  0  0  0  0
   -5.5258   -2.2363    0.0000 C   0  0  0  0  0  0  0  0  0  0  0  0
   -4.1382   -0.0398    0.0000 C   0  0  0  0  0  0  0  0  0  0  0  0
   -4.0784    1.4590    0.0000 C   0  0  0  0  0  0  0  0  0  0  0  0
   -2.7506    2.1567    0.0000 C   0  0  0  0  0  0  0  0  0  0  0  0
   -1.4824    1.3556    0.0000 C   0  0  0  0  0  0  0  0  0  0  0  0
   -0.1546    2.0532    0.0000 O   0  0  0  0  0  0  0  0  0  0  0  0
    1.1136    1.2521    0.0000 C   0  0  0  0  0  0  0  0  0  0  0  0
    2.4415    1.9498    0.0000 N   0  0  0  0  0  0  0  0  0  0  0  0
    3.7096    1.1487    0.0000 C   0  0  0  0  0  0  0  0  0  0  0  0
    5.0375    1.8464    0.0000 N   0  0  0  0  0  0  0  0  0  0  0  0
    3.6499   -0.3501    0.0000 C   0  0  0  0  0  0  0  0  0  0  0  0
    2.3220   -1.0478    0.0000 C   0  0  0  0  0  0  0  0  0  0  0  0
    1.0539   -0.2467    0.0000 C   0  0  0  0  0  0  0  0  0  0  0  0
   -0.2740   -0.9444    0.0000 C   0  0  0  0  0  0  0  0  0  0  0  0
   -0.3337   -2.4432    0.0000 O   0  0  0  0  0  0  0  0  0  0  0  0
   -1.5422   -0.1433    0.0000 C   0  0  0  0  0  0  0  0  0  0  0  0
   -2.8700   -0.8409    0.0000 C   0  0  0  0  0  0  0  0  0  0  0  0
    4.9180   -1.1513    0.0000 C   0  0  0  0  0  0  0  0  0  0  0  0
    6.2459   -0.4536    0.0000 O   0  0  0  0  0  0  0  0  0  0  0  0
    4.8583   -2.6501    0.0000 O   0  0  0  0  0  0  0  0  0  0  0  0
  1  2  1  0
  2  3  1  0
  2  4  1  0
  4  5  2  0
  4 19  1  0
  5  6  1  0
  6  7  2  0
  7  8  1  0
  7 18  1  0
  8  9  1  0
  9 10  1  0
  9 15  2  0
 10 11  2  0
 11 12  1  0
 11 13  1  0
 13 14  2  0
 13 20  1  0
 14 15  1  0
 15 16  1  0
 16 17  2  0
 16 18  1  0
 18 19  2  0
 20 21  2  0
 20 22  1  0
M  CHG  1  22  -1
M  END
>  <s_m_entry_id>  (144) 
233

>  <s_m_entry_name>  (144) 
SIM_Broad_MProResults_ligprep.233

>  <Mol2_MolInfo_Name>  (144) 
8718

>  <Mol2_MolInfo_Type>  (144) 
SMALL

>  <Mol2_MolInfo_Charge>  (144) 
USER_CHARGES

>  <Mol2_Substructures>  (144) 
     1 ****        1 GROUP             0       ****    0 ROOT    

>  <Name>  (144) 
8718

>  <s_m_Source_Path>  (144) 
/home/jgilaber/drug_learning/drug_learning/datasets/SARS2

>  <s_m_Source_File>  (144) 
SIM_Broad_MProResults_ligprep.sd

>  <i_m_Source_File_Index>  (144) 
233

>  <s_m_subgroup_title>  (144) 
SIM_Broad_MProResults_ligprep

>  <s_m_subgroupid>  (144) 
SIM_Broad_MProResults_ligprep

>  <b_m_subgroup_collapsed>  (144) 
0

$$$$
408
     RDKit          2D

 26 29  0  0  1  0  0  0  0  0999 V2000
    2.3542   -4.0070    0.0000 C   0  0  0  0  0  0  0  0  0  0  0  0
    1.3957   -2.8531    0.0000 C   0  0  0  0  0  0  0  0  0  0  0  0
   -0.0828   -3.1063    0.0000 C   0  0  0  0  0  0  0  0  0  0  0  0
   -1.0412   -1.9524    0.0000 O   0  0  0  0  0  0  0  0  0  0  0  0
   -0.5212   -0.5454    0.0000 C   0  0  0  0  0  0  0  0  0  0  0  0
   -1.4797    0.6084    0.0000 C   0  0  0  0  0  0  0  0  0  0  0  0
   -2.9581    0.3553    0.0000 N   0  0  0  0  0  0  0  0  0  0  0  0
   -3.9166    1.5091    0.0000 C   0  0  0  0  0  0  0  0  0  0  0  0
   -5.3951    1.2560    0.0000 C   0  0  0  0  0  0  0  0  0  0  0  0
   -5.9151   -0.1510    0.0000 N   0  0  0  0  0  0  0  0  0  0  0  0
   -7.3936   -0.4041    0.0000 C   0  0  0  0  0  0  0  0  0  0  0  0
   -4.9567   -1.3048    0.0000 C   0  0  0  0  0  0  0  0  0  0  0  0
   -3.4782   -1.0517    0.0000 C   0  0  0  0  0  0  0  0  0  0  0  0
   -0.9596    2.0154    0.0000 C   0  0  0  0  0  0  0  0  0  0  0  0
   -1.9181    3.1692    0.0000 F   0  0  0  0  0  0  0  0  0  0  0  0
    0.5189    2.2685    0.0000 C   0  0  0  0  0  0  0  0  0  0  0  0
    1.4773    1.1146    0.0000 C   0  0  0  0  0  0  0  0  0  0  0  0
    2.9558    1.3678    0.0000 C   0  0  0  0  0  0  0  0  0  0  0  0
    3.4758    2.7747    0.0000 O   0  0  0  0  0  0  0  0  0  0  0  0
    3.9143    0.2139    0.0000 C   0  0  0  0  0  0  0  0  0  0  0  0
    3.3942   -1.1930    0.0000 C   0  0  0  0  0  0  0  0  0  0  0  0
    1.9157   -1.4462    0.0000 N   0  0  0  0  0  0  0  0  0  0  0  0
    0.9573   -0.2923    0.0000 C   0  0  0  0  0  0  0  0  0  0  0  0
    5.3928    0.4670    0.0000 C   0  0  0  0  0  0  0  0  0  0  0  0
    5.9128    1.8740    0.0000 O   0  0  0  0  0  0  0  0  0  0  0  0
    6.3512   -0.6868    0.0000 O   0  0  0  0  0  0  0  0  0  0  0  0
  1  2  1  0
  2  3  1  0
  2 22  1  0
  3  4  1  0
  4  5  1  0
  5  6  1  0
  5 23  2  0
  6  7  1  0
  6 14  2  0
  7  8  1  0
  7 13  1  0
  8  9  1  0
  9 10  1  0
 10 11  1  0
 10 12  1  0
 12 13  1  0
 14 15  1  0
 14 16  1  0
 16 17  2  0
 17 18  1  0
 17 23  1  0
 18 19  2  0
 18 20  1  0
 20 21  2  0
 20 24  1  0
 21 22  1  0
 22 23  1  0
 24 25  2  0
 24 26  1  0
M  CHG  1  10   1
M  END
>  <s_m_entry_id>  (145) 
178

>  <s_m_entry_name>  (145) 
SIM_Broad_MProResults_ligprep.178

>  <Mol2_MolInfo_Name>  (145) 
408

>  <Mol2_MolInfo_Type>  (145) 
SMALL

>  <Mol2_MolInfo_Charge>  (145) 
USER_CHARGES

>  <Mol2_Substructures>  (145) 
     1 ****        1 GROUP             0       ****    0 ROOT    

>  <Name>  (145) 
408

>  <s_m_Source_Path>  (145) 
/home/jgilaber/drug_learning/drug_learning/datasets/SARS2

>  <s_m_Source_File>  (145) 
SIM_Broad_MProResults_ligprep.sd

>  <i_m_Source_File_Index>  (145) 
178

>  <s_m_subgroup_title>  (145) 
SIM_Broad_MProResults_ligprep

>  <s_m_subgroupid>  (145) 
SIM_Broad_MProResults_ligprep

>  <b_m_subgroup_collapsed>  (145) 
0

$$$$
9052
     RDKit          2D

 25 28  0  0  1  0  0  0  0  0999 V2000
   -5.4210   -2.3228    0.0000 O   0  0  0  0  0  0  0  0  0  0  0  0
   -4.5471   -1.1037    0.0000 C   0  0  0  0  0  0  0  0  0  0  0  0
   -5.1659    0.2627    0.0000 N   0  0  0  0  0  0  0  0  0  0  0  0
   -4.2920    1.4818    0.0000 C   0  0  0  0  0  0  0  0  0  0  0  0
   -4.9108    2.8482    0.0000 C   0  0  0  0  0  0  0  0  0  0  0  0
   -6.4036    2.9955    0.0000 N   0  0  0  0  0  0  0  0  0  0  0  0
   -7.2775    1.7764    0.0000 C   0  0  0  0  0  0  0  0  0  0  0  0
   -6.6586    0.4100    0.0000 C   0  0  0  0  0  0  0  0  0  0  0  0
   -3.0543   -1.2509    0.0000 C   0  0  0  0  0  0  0  0  0  0  0  0
   -2.4355   -2.6173    0.0000 C   0  0  0  0  0  0  0  0  0  0  0  0
   -0.9427   -2.7646    0.0000 C   0  0  0  0  0  0  0  0  0  0  0  0
   -0.0688   -1.5455    0.0000 C   0  0  0  0  0  0  0  0  0  0  0  0
    1.4239   -1.6928    0.0000 C   0  0  0  0  0  0  0  0  0  0  0  0
    2.2979   -0.4736    0.0000 C   0  0  0  0  0  0  0  0  0  0  0  0
    3.7906   -0.6209    0.0000 C   0  0  0  0  0  0  0  0  0  0  0  0
    4.5489   -1.9151    0.0000 N   0  0  0  0  0  0  0  0  0  0  0  0
    6.0141   -1.5939    0.0000 N   0  0  0  0  0  0  0  0  0  0  0  0
    6.1614   -0.1012    0.0000 C   0  0  0  0  0  0  0  0  0  0  0  0
    7.3692    0.7882    0.0000 C   0  0  0  0  0  0  0  0  0  0  0  0
    7.2029    2.2790    0.0000 C   0  0  0  0  0  0  0  0  0  0  0  0
    5.8288    2.8803    0.0000 C   0  0  0  0  0  0  0  0  0  0  0  0
    4.6209    1.9909    0.0000 C   0  0  0  0  0  0  0  0  0  0  0  0
    4.7872    0.5002    0.0000 C   0  0  0  0  0  0  0  0  0  0  0  0
   -0.6876   -0.1791    0.0000 C   0  0  0  0  0  0  0  0  0  0  0  0
   -2.1804   -0.0318    0.0000 C   0  0  0  0  0  0  0  0  0  0  0  0
  1  2  2  0
  2  3  1  0
  2  9  1  0
  3  4  1  0
  3  8  1  0
  4  5  1  0
  5  6  1  0
  6  7  1  0
  7  8  1  0
  9 10  2  0
  9 25  1  0
 10 11  1  0
 11 12  2  0
 12 13  1  0
 12 24  1  0
 13 14  2  0
 14 15  1  0
 15 16  2  0
 15 23  1  0
 16 17  1  0
 17 18  1  0
 18 19  1  0
 18 23  2  0
 19 20  2  0
 20 21  1  0
 21 22  2  0
 22 23  1  0
 24 25  2  0
M  CHG  1   6   1
M  END
>  <s_m_entry_id>  (146) 
287

>  <s_m_entry_name>  (146) 
SIM_Broad_MProResults_ligprep.287

>  <Mol2_MolInfo_Name>  (146) 
9052

>  <Mol2_MolInfo_Type>  (146) 
SMALL

>  <Mol2_MolInfo_Charge>  (146) 
USER_CHARGES

>  <Mol2_Substructures>  (146) 
     1 UNK         1 GROUP             0       ****    0 ROOT    

>  <Name>  (146) 
9052

>  <s_m_Source_Path>  (146) 
/home/jgilaber/drug_learning/drug_learning/datasets/SARS2

>  <s_m_Source_File>  (146) 
SIM_Broad_MProResults_ligprep.sd

>  <i_m_Source_File_Index>  (146) 
287

>  <s_m_subgroup_title>  (146) 
SIM_Broad_MProResults_ligprep

>  <s_m_subgroupid>  (146) 
SIM_Broad_MProResults_ligprep

>  <b_m_subgroup_collapsed>  (146) 
0

$$$$
5207
     RDKit          2D

 19 20  0  0  1  0  0  0  0  0999 V2000
   -1.6749   -3.5840    0.0000 C   0  0  0  0  0  0  0  0  0  0  0  0
   -0.8362   -2.3404    0.0000 C   0  0  0  0  0  0  0  0  0  0  0  0
    0.6601   -2.4449    0.0000 C   0  0  0  0  0  0  0  0  0  0  0  0
    1.4989   -1.2013    0.0000 N   0  0  0  0  0  0  0  0  0  0  0  0
    2.9952   -1.3059    0.0000 C   0  0  0  0  0  0  0  0  0  0  0  0
    3.8339   -0.0623    0.0000 C   0  0  0  0  0  0  0  0  0  0  0  0
    5.3303   -0.1668    0.0000 O   0  0  0  0  0  0  0  0  0  0  0  0
    3.1763    1.2859    0.0000 N   0  0  0  0  0  0  0  0  0  0  0  0
    1.6800    1.3904    0.0000 C   0  0  0  0  0  0  0  0  0  0  0  0
    1.0223    2.7386    0.0000 O   0  0  0  0  0  0  0  0  0  0  0  0
    0.8412    0.1468    0.0000 C   0  0  0  0  0  0  0  0  0  0  0  0
   -1.4938   -0.9922    0.0000 N   0  0  0  0  0  0  0  0  0  0  0  0
   -0.6551    0.2514    0.0000 C   0  0  0  0  0  0  0  0  0  0  0  0
   -1.3127    1.5995    0.0000 C   0  0  0  0  0  0  0  0  0  0  0  0
   -0.4740    2.8431    0.0000 O   0  0  0  0  0  0  0  0  0  0  0  0
   -2.8091    1.7041    0.0000 N   0  0  0  0  0  0  0  0  0  0  0  0
   -3.6478    0.4605    0.0000 C   0  0  0  0  0  0  0  0  0  0  0  0
   -5.1442    0.5651    0.0000 O   0  0  0  0  0  0  0  0  0  0  0  0
   -2.9902   -0.8877    0.0000 C   0  0  0  0  0  0  0  0  0  0  0  0
  1  2  1  0
  2  3  1  0
  2 12  1  0
  3  4  1  0
  4  5  1  0
  4 11  1  0
  5  6  1  0
  6  7  2  0
  6  8  1  0
  8  9  1  0
  9 10  2  0
  9 11  1  0
 12 13  1  0
 12 19  1  0
 13 14  1  0
 14 15  2  0
 14 16  1  0
 16 17  1  0
 17 18  2  0
 17 19  1  0
M  CHG  1  12   1
M  END
>  <s_m_entry_id>  (147) 
255

>  <s_m_entry_name>  (147) 
SIM_Broad_MProResults_ligprep.255

>  <Mol2_MolInfo_Name>  (147) 
5207

>  <Mol2_MolInfo_Type>  (147) 
SMALL

>  <Mol2_MolInfo_Charge>  (147) 
USER_CHARGES

>  <Mol2_Substructures>  (147) 
     1 UNK         1 GROUP             0       ****    0 ROOT    

>  <Name>  (147) 
5207

>  <s_m_Source_Path>  (147) 
/home/jgilaber/drug_learning/drug_learning/datasets/SARS2

>  <s_m_Source_File>  (147) 
SIM_Broad_MProResults_ligprep.sd

>  <i_m_Source_File_Index>  (147) 
255

>  <s_m_subgroup_title>  (147) 
SIM_Broad_MProResults_ligprep

>  <s_m_subgroupid>  (147) 
SIM_Broad_MProResults_ligprep

>  <b_m_subgroup_collapsed>  (147) 
0

$$$$
7427
     RDKit          2D

 19 22  0  0  1  0  0  0  0  0999 V2000
   -2.2254   -3.2708    0.0000 N   0  0  0  0  0  0  0  0  0  0  0  0
   -1.5848   -1.9145    0.0000 C   0  0  0  0  0  0  0  0  0  0  0  0
   -0.0898   -1.7911    0.0000 C   0  0  0  0  0  0  0  0  0  0  0  0
    0.5508   -0.4348    0.0000 C   0  0  0  0  0  0  0  0  0  0  0  0
    2.0457   -0.3114    0.0000 C   0  0  0  0  0  0  0  0  0  0  0  0
    2.9000   -1.5444    0.0000 C   0  0  0  0  0  0  0  0  0  0  0  0
    4.3949   -1.4210    0.0000 C   0  0  0  0  0  0  0  0  0  0  0  0
    5.0355   -0.0647    0.0000 C   0  0  0  0  0  0  0  0  0  0  0  0
    4.1812    1.1683    0.0000 C   0  0  0  0  0  0  0  0  0  0  0  0
    2.6863    1.0449    0.0000 C   0  0  0  0  0  0  0  0  0  0  0  0
    1.8320    2.2779    0.0000 C   0  0  0  0  0  0  0  0  0  0  0  0
    0.3371    2.1545    0.0000 C   0  0  0  0  0  0  0  0  0  0  0  0
   -0.3035    0.7982    0.0000 C   0  0  0  0  0  0  0  0  0  0  0  0
   -1.7984    0.6748    0.0000 C   0  0  0  0  0  0  0  0  0  0  0  0
   -2.6527    1.9078    0.0000 C   0  0  0  0  0  0  0  0  0  0  0  0
   -4.1477    1.7844    0.0000 C   0  0  0  0  0  0  0  0  0  0  0  0
   -4.7883    0.4281    0.0000 C   0  0  0  0  0  0  0  0  0  0  0  0
   -3.9340   -0.8049    0.0000 C   0  0  0  0  0  0  0  0  0  0  0  0
   -2.4391   -0.6815    0.0000 C   0  0  0  0  0  0  0  0  0  0  0  0
  1  2  1  0
  2  3  2  0
  2 19  1  0
  3  4  1  0
  4  5  2  0
  4 13  1  0
  5  6  1  0
  5 10  1  0
  6  7  2  0
  7  8  1  0
  8  9  2  0
  9 10  1  0
 10 11  2  0
 11 12  1  0
 12 13  2  0
 13 14  1  0
 14 15  1  0
 14 19  2  0
 15 16  2  0
 16 17  1  0
 17 18  2  0
 18 19  1  0
M  END
>  <s_m_entry_id>  (148) 
275

>  <s_m_entry_name>  (148) 
SIM_Broad_MProResults_ligprep.275

>  <Mol2_MolInfo_Name>  (148) 
7427

>  <Mol2_MolInfo_Type>  (148) 
SMALL

>  <Mol2_MolInfo_Charge>  (148) 
USER_CHARGES

>  <Mol2_Substructures>  (148) 
     1 UNK         1 GROUP             0       ****    0 ROOT    

>  <Name>  (148) 
7427

>  <s_m_Source_Path>  (148) 
/home/jgilaber/drug_learning/drug_learning/datasets/SARS2

>  <s_m_Source_File>  (148) 
SIM_Broad_MProResults_ligprep.sd

>  <i_m_Source_File_Index>  (148) 
275

>  <s_m_subgroup_title>  (148) 
SIM_Broad_MProResults_ligprep

>  <s_m_subgroupid>  (148) 
SIM_Broad_MProResults_ligprep

>  <b_m_subgroup_collapsed>  (148) 
0

$$$$
6475
     RDKit          2D

 19 20  0  0  1  0  0  0  0  0999 V2000
   -1.6749   -3.5840    0.0000 C   0  0  0  0  0  0  0  0  0  0  0  0
   -0.8362   -2.3404    0.0000 C   0  0  0  0  0  0  0  0  0  0  0  0
    0.6601   -2.4449    0.0000 C   0  0  0  0  0  0  0  0  0  0  0  0
    1.4989   -1.2013    0.0000 N   0  0  0  0  0  0  0  0  0  0  0  0
    2.9952   -1.3059    0.0000 C   0  0  0  0  0  0  0  0  0  0  0  0
    3.8339   -0.0623    0.0000 C   0  0  0  0  0  0  0  0  0  0  0  0
    5.3303   -0.1668    0.0000 O   0  0  0  0  0  0  0  0  0  0  0  0
    3.1763    1.2859    0.0000 N   0  0  0  0  0  0  0  0  0  0  0  0
    1.6800    1.3904    0.0000 C   0  0  0  0  0  0  0  0  0  0  0  0
    1.0223    2.7386    0.0000 O   0  0  0  0  0  0  0  0  0  0  0  0
    0.8412    0.1468    0.0000 C   0  0  0  0  0  0  0  0  0  0  0  0
   -1.4938   -0.9922    0.0000 N   0  0  0  0  0  0  0  0  0  0  0  0
   -0.6551    0.2514    0.0000 C   0  0  0  0  0  0  0  0  0  0  0  0
   -1.3127    1.5995    0.0000 C   0  0  0  0  0  0  0  0  0  0  0  0
   -0.4740    2.8431    0.0000 O   0  0  0  0  0  0  0  0  0  0  0  0
   -2.8091    1.7041    0.0000 N   0  0  0  0  0  0  0  0  0  0  0  0
   -3.6478    0.4605    0.0000 C   0  0  0  0  0  0  0  0  0  0  0  0
   -5.1442    0.5651    0.0000 O   0  0  0  0  0  0  0  0  0  0  0  0
   -2.9902   -0.8877    0.0000 C   0  0  0  0  0  0  0  0  0  0  0  0
  1  2  1  0
  2  3  1  0
  2 12  1  0
  3  4  1  0
  4  5  1  0
  4 11  1  0
  5  6  1  0
  6  7  2  0
  6  8  1  0
  8  9  1  0
  9 10  2  0
  9 11  1  0
 12 13  1  0
 12 19  1  0
 13 14  1  0
 14 15  2  0
 14 16  1  0
 16 17  1  0
 17 18  2  0
 17 19  1  0
M  CHG  1  12   1
M  END
>  <s_m_entry_id>  (149) 
209

>  <s_m_entry_name>  (149) 
SIM_Broad_MProResults_ligprep.209

>  <Mol2_MolInfo_Name>  (149) 
6475

>  <Mol2_MolInfo_Type>  (149) 
SMALL

>  <Mol2_MolInfo_Charge>  (149) 
USER_CHARGES

>  <Mol2_Substructures>  (149) 
     1 ****        1 GROUP             0       ****    0 ROOT    

>  <Name>  (149) 
6475

>  <s_m_Source_Path>  (149) 
/home/jgilaber/drug_learning/drug_learning/datasets/SARS2

>  <s_m_Source_File>  (149) 
SIM_Broad_MProResults_ligprep.sd

>  <i_m_Source_File_Index>  (149) 
209

>  <s_m_subgroup_title>  (149) 
SIM_Broad_MProResults_ligprep

>  <s_m_subgroupid>  (149) 
SIM_Broad_MProResults_ligprep

>  <b_m_subgroup_collapsed>  (149) 
0

$$$$
8103
     RDKit          2D

 14 15  0  0  1  0  0  0  0  0999 V2000
   -0.4932    0.5650    0.0000 C   0  0  0  0  0  0  0  0  0  0  0  0
    0.4932   -0.5650    0.0000 S   0  0  0  0  0  0  0  0  0  0  0  0
    1.9651   -0.2757    0.0000 C   0  0  0  0  0  0  0  0  0  0  0  0
    2.9515   -1.4058    0.0000 N   0  0  0  0  0  0  0  0  0  0  0  0
    4.4233   -1.1165    0.0000 C   0  0  0  0  0  0  0  0  0  0  0  0
    4.9087    0.3028    0.0000 C   0  0  0  0  0  0  0  0  0  0  0  0
    3.9223    1.4328    0.0000 C   0  0  0  0  0  0  0  0  0  0  0  0
    2.4505    1.1435    0.0000 N   0  0  0  0  0  0  0  0  0  0  0  0
   -1.9651    0.2757    0.0000 C   0  0  0  0  0  0  0  0  0  0  0  0
   -2.9515    1.4058    0.0000 C   0  0  0  0  0  0  0  0  0  0  0  0
   -4.4233    1.1165    0.0000 C   0  0  0  0  0  0  0  0  0  0  0  0
   -4.9087   -0.3028    0.0000 C   0  0  0  0  0  0  0  0  0  0  0  0
   -3.9223   -1.4328    0.0000 N   0  0  0  0  0  0  0  0  0  0  0  0
   -2.4505   -1.1435    0.0000 C   0  0  0  0  0  0  0  0  0  0  0  0
  1  2  1  0
  1  9  1  0
  2  3  1  0
  3  4  2  0
  3  8  1  0
  4  5  1  0
  5  6  2  0
  6  7  1  0
  7  8  2  0
  9 10  2  0
  9 14  1  0
 10 11  1  0
 11 12  2  0
 12 13  1  0
 13 14  2  0
M  END
>  <s_m_entry_id>  (150) 
222

>  <s_m_entry_name>  (150) 
SIM_Broad_MProResults_ligprep.222

>  <Mol2_MolInfo_Name>  (150) 
8103

>  <Mol2_MolInfo_Type>  (150) 
SMALL

>  <Mol2_MolInfo_Charge>  (150) 
USER_CHARGES

>  <Mol2_Substructures>  (150) 
     1 ****        1 GROUP             0       ****    0 ROOT    

>  <Name>  (150) 
8103

>  <s_m_Source_Path>  (150) 
/home/jgilaber/drug_learning/drug_learning/datasets/SARS2

>  <s_m_Source_File>  (150) 
SIM_Broad_MProResults_ligprep.sd

>  <i_m_Source_File_Index>  (150) 
222

>  <s_m_subgroup_title>  (150) 
SIM_Broad_MProResults_ligprep

>  <s_m_subgroupid>  (150) 
SIM_Broad_MProResults_ligprep

>  <b_m_subgroup_collapsed>  (150) 
0

$$$$
1094
     RDKit          2D

 54 59  0  0  1  0  0  0  0  0999 V2000
  -15.7797   -2.6242    0.0000 C   0  0  0  0  0  0  0  0  0  0  0  0
  -14.2797   -2.6332    0.0000 O   0  0  0  0  0  0  0  0  0  0  0  0
  -13.5219   -1.3387    0.0000 C   0  0  0  0  0  0  0  0  0  0  0  0
  -14.2640   -0.0352    0.0000 O   0  0  0  0  0  0  0  0  0  0  0  0
  -12.0219   -1.3478    0.0000 N   0  0  0  0  0  0  0  0  0  0  0  0
  -11.2641   -0.0533    0.0000 C   0  0  0  0  0  0  0  0  0  0  0  0
  -12.0062    1.2503    0.0000 C   0  0  0  0  0  0  0  0  0  0  0  0
  -13.5062    1.2593    0.0000 C   0  0  0  0  0  0  0  0  0  0  0  0
  -11.2484    2.5448    0.0000 C   0  0  0  0  0  0  0  0  0  0  0  0
   -9.7641   -0.0623    0.0000 C   0  0  0  0  0  0  0  0  0  0  0  0
   -9.0063    1.2322    0.0000 O   0  0  0  0  0  0  0  0  0  0  0  0
   -9.0220   -1.3658    0.0000 N   0  0  0  0  0  0  0  0  0  0  0  0
   -9.6403   -2.7325    0.0000 C   0  0  0  0  0  0  0  0  0  0  0  0
   -8.5317   -3.7429    0.0000 C   0  0  0  0  0  0  0  0  0  0  0  0
   -7.2281   -3.0007    0.0000 C   0  0  0  0  0  0  0  0  0  0  0  0
   -7.5311   -1.5316    0.0000 C   0  0  0  0  0  0  0  0  0  0  0  0
   -6.5207   -0.4230    0.0000 C   0  0  0  0  0  0  0  0  0  0  0  0
   -6.8238    1.0461    0.0000 N   0  0  0  0  0  0  0  0  0  0  0  0
   -5.5202    1.7883    0.0000 C   0  0  0  0  0  0  0  0  0  0  0  0
   -4.4116    0.7779    0.0000 C   0  0  0  0  0  0  0  0  0  0  0  0
   -5.0299   -0.5887    0.0000 N   0  0  0  0  0  0  0  0  0  0  0  0
   -2.9425    1.0809    0.0000 C   0  0  0  0  0  0  0  0  0  0  0  0
   -1.9456   -0.0399    0.0000 C   0  0  0  0  0  0  0  0  0  0  0  0
   -0.4765    0.2632    0.0000 C   0  0  0  0  0  0  0  0  0  0  0  0
   -0.0044    1.6869    0.0000 C   0  0  0  0  0  0  0  0  0  0  0  0
   -1.0013    2.8077    0.0000 C   0  0  0  0  0  0  0  0  0  0  0  0
   -2.4704    2.5047    0.0000 C   0  0  0  0  0  0  0  0  0  0  0  0
    1.4647    1.9900    0.0000 C   0  0  0  0  0  0  0  0  0  0  0  0
    2.4617    0.8692    0.0000 C   0  0  0  0  0  0  0  0  0  0  0  0
    3.9307    1.1722    0.0000 C   0  0  0  0  0  0  0  0  0  0  0  0
    4.4029    2.5960    0.0000 C   0  0  0  0  0  0  0  0  0  0  0  0
    3.4059    3.7167    0.0000 C   0  0  0  0  0  0  0  0  0  0  0  0
    1.9368    3.4137    0.0000 C   0  0  0  0  0  0  0  0  0  0  0  0
    5.8719    2.8990    0.0000 C   0  0  0  0  0  0  0  0  0  0  0  0
    6.4903    4.2656    0.0000 C   0  0  0  0  0  0  0  0  0  0  0  0
    7.9811    4.0999    0.0000 N   0  0  0  0  0  0  0  0  0  0  0  0
    8.2841    2.6308    0.0000 C   0  0  0  0  0  0  0  0  0  0  0  0
    6.9806    1.8886    0.0000 N   0  0  0  0  0  0  0  0  0  0  0  0
    9.6507    2.0124    0.0000 C   0  0  0  0  0  0  0  0  0  0  0  0
   10.9543    2.7546    0.0000 C   0  0  0  0  0  0  0  0  0  0  0  0
   12.0629    1.7442    0.0000 C   0  0  0  0  0  0  0  0  0  0  0  0
   11.4446    0.3776    0.0000 C   0  0  0  0  0  0  0  0  0  0  0  0
    9.9538    0.5434    0.0000 N   0  0  0  0  0  0  0  0  0  0  0  0
    8.9434   -0.5653    0.0000 C   0  0  0  0  0  0  0  0  0  0  0  0
    7.4780   -0.2446    0.0000 O   0  0  0  0  0  0  0  0  0  0  0  0
    9.3983   -1.9946    0.0000 C   0  0  0  0  0  0  0  0  0  0  0  0
   10.8636   -2.3153    0.0000 N   0  0  0  0  0  0  0  0  0  0  0  0
   11.3185   -3.7447    0.0000 C   0  0  0  0  0  0  0  0  0  0  0  0
   10.3081   -4.8533    0.0000 O   0  0  0  0  0  0  0  0  0  0  0  0
   12.7838   -4.0654    0.0000 O   0  0  0  0  0  0  0  0  0  0  0  0
   13.2388   -5.4947    0.0000 C   0  0  0  0  0  0  0  0  0  0  0  0
    8.3879   -3.1033    0.0000 C   0  0  0  0  0  0  0  0  0  0  0  0
    8.8428   -4.5326    0.0000 C   0  0  0  0  0  0  0  0  0  0  0  0
    6.9226   -2.7826    0.0000 C   0  0  0  0  0  0  0  0  0  0  0  0
  1  2  1  0
  2  3  1  0
  3  4  2  0
  3  5  1  0
  5  6  1  0
  6  7  1  0
  6 10  1  0
  7  8  1  0
  7  9  1  0
 10 11  2  0
 10 12  1  0
 12 13  1  0
 12 16  1  0
 13 14  1  0
 14 15  1  0
 15 16  1  0
 16 17  1  0
 17 18  1  0
 17 21  2  0
 18 19  1  0
 19 20  2  0
 20 21  1  0
 20 22  1  0
 22 23  2  0
 22 27  1  0
 23 24  1  0
 24 25  2  0
 25 26  1  0
 25 28  1  0
 26 27  2  0
 28 29  2  0
 28 33  1  0
 29 30  1  0
 30 31  2  0
 31 32  1  0
 31 34  1  0
 32 33  2  0
 34 35  2  0
 34 38  1  0
 35 36  1  0
 36 37  2  0
 37 38  1  0
 37 39  1  0
 39 40  1  0
 39 43  1  0
 40 41  1  0
 41 42  1  0
 42 43  1  0
 43 44  1  0
 44 45  2  0
 44 46  1  0
 46 47  1  0
 46 52  1  0
 47 48  1  0
 48 49  2  0
 48 50  1  0
 50 51  1  0
 52 53  1  0
 52 54  1  0
M  END
>  <s_m_entry_id>  (151) 
190

>  <s_m_entry_name>  (151) 
SIM_Broad_MProResults_ligprep.190

>  <Mol2_MolInfo_Name>  (151) 
1094

>  <Mol2_MolInfo_Type>  (151) 
SMALL

>  <Mol2_MolInfo_Charge>  (151) 
USER_CHARGES

>  <Mol2_Substructures>  (151) 
     1 ****        1 GROUP             0       ****    0 ROOT    

>  <Name>  (151) 
1094

>  <s_m_Source_Path>  (151) 
/home/jgilaber/drug_learning/drug_learning/datasets/SARS2

>  <s_m_Source_File>  (151) 
SIM_Broad_MProResults_ligprep.sd

>  <i_m_Source_File_Index>  (151) 
190

>  <s_m_subgroup_title>  (151) 
SIM_Broad_MProResults_ligprep

>  <s_m_subgroupid>  (151) 
SIM_Broad_MProResults_ligprep

>  <b_m_subgroup_collapsed>  (151) 
0

$$$$
7651
     RDKit          2D

 18 20  0  0  1  0  0  0  0  0999 V2000
    3.1087    3.5742    0.0000 C   0  0  0  0  0  0  0  0  0  0  0  0
    2.3505    2.2799    0.0000 C   0  0  0  0  0  0  0  0  0  0  0  0
    3.3471    1.1589    0.0000 C   0  0  0  0  0  0  0  0  0  0  0  0
    3.4945   -0.3339    0.0000 C   0  0  0  0  0  0  0  0  0  0  0  0
    2.7363   -1.6282    0.0000 C   0  0  0  0  0  0  0  0  0  0  0  0
    1.3622   -2.2296    0.0000 C   0  0  0  0  0  0  0  0  0  0  0  0
    2.2361   -3.4487    0.0000 C   0  0  0  0  0  0  0  0  0  0  0  0
    0.3514   -3.3379    0.0000 O   0  0  0  0  0  0  0  0  0  0  0  0
   -0.1031   -1.9085    0.0000 C   0  0  0  0  0  0  0  0  0  0  0  0
   -1.0997   -0.7874    0.0000 C   0  0  0  0  0  0  0  0  0  0  0  0
   -2.4738   -1.3888    0.0000 O   0  0  0  0  0  0  0  0  0  0  0  0
   -3.4705   -0.2678    0.0000 C   0  0  0  0  0  0  0  0  0  0  0  0
   -4.9632   -0.4152    0.0000 O   0  0  0  0  0  0  0  0  0  0  0  0
   -2.7123    1.0265    0.0000 C   0  0  0  0  0  0  0  0  0  0  0  0
   -3.3137    2.4006    0.0000 C   0  0  0  0  0  0  0  0  0  0  0  0
   -1.2471    0.7053    0.0000 C   0  0  0  0  0  0  0  0  0  0  0  0
   -0.4889    1.9996    0.0000 C   0  0  0  0  0  0  0  0  0  0  0  0
    0.8853    2.6010    0.0000 C   0  0  0  0  0  0  0  0  0  0  0  0
  1  2  1  0
  2  3  2  0
  2 18  1  0
  3  4  1  0
  4  5  1  0
  5  6  1  0
  6  7  1  0
  6  8  1  0
  6  9  1  0
  8  9  1  0
  9 10  1  0
 10 11  1  0
 10 16  1  0
 11 12  1  0
 12 13  2  0
 12 14  1  0
 14 15  2  0
 14 16  1  0
 16 17  1  0
 17 18  1  0
M  END
>  <s_m_entry_id>  (152) 
276

>  <s_m_entry_name>  (152) 
SIM_Broad_MProResults_ligprep.276

>  <Mol2_MolInfo_Name>  (152) 
7651

>  <Mol2_MolInfo_Type>  (152) 
SMALL

>  <Mol2_MolInfo_Charge>  (152) 
USER_CHARGES

>  <Mol2_Substructures>  (152) 
     1 UNK         1 GROUP             0       ****    0 ROOT    

>  <Name>  (152) 
7651

>  <s_m_Source_Path>  (152) 
/home/jgilaber/drug_learning/drug_learning/datasets/SARS2

>  <s_m_Source_File>  (152) 
SIM_Broad_MProResults_ligprep.sd

>  <i_m_Source_File_Index>  (152) 
276

>  <s_m_subgroup_title>  (152) 
SIM_Broad_MProResults_ligprep

>  <s_m_subgroupid>  (152) 
SIM_Broad_MProResults_ligprep

>  <b_m_subgroup_collapsed>  (152) 
0

$$$$
7747
     RDKit          2D

 21 23  0  0  1  0  0  0  0  0999 V2000
    0.7377   -2.9661    0.0000 O   0  0  0  0  0  0  0  0  0  0  0  0
   -0.1563   -1.7616    0.0000 C   0  0  0  0  0  0  0  0  0  0  0  0
   -1.6464   -1.9335    0.0000 C   0  0  0  0  0  0  0  0  0  0  0  0
   -2.5403   -0.7290    0.0000 C   0  0  0  0  0  0  0  0  0  0  0  0
   -4.0304   -0.9009    0.0000 C   0  0  0  0  0  0  0  0  0  0  0  0
   -4.6266   -2.2774    0.0000 O   0  0  0  0  0  0  0  0  0  0  0  0
   -4.9244    0.3036    0.0000 C   0  0  0  0  0  0  0  0  0  0  0  0
   -4.3282    1.6800    0.0000 C   0  0  0  0  0  0  0  0  0  0  0  0
   -5.2222    2.8846    0.0000 O   0  0  0  0  0  0  0  0  0  0  0  0
   -2.8381    1.8520    0.0000 C   0  0  0  0  0  0  0  0  0  0  0  0
   -1.9442    0.6475    0.0000 C   0  0  0  0  0  0  0  0  0  0  0  0
   -0.4541    0.8194    0.0000 O   0  0  0  0  0  0  0  0  0  0  0  0
    0.4399   -0.3851    0.0000 C   0  0  0  0  0  0  0  0  0  0  0  0
    1.9300   -0.2132    0.0000 C   0  0  0  0  0  0  0  0  0  0  0  0
    2.8240   -1.4177    0.0000 C   0  0  0  0  0  0  0  0  0  0  0  0
    4.3141   -1.2458    0.0000 C   0  0  0  0  0  0  0  0  0  0  0  0
    4.9102    0.1307    0.0000 C   0  0  0  0  0  0  0  0  0  0  0  0
    6.4004    0.3026    0.0000 O   0  0  0  0  0  0  0  0  0  0  0  0
    4.0163    1.3352    0.0000 C   0  0  0  0  0  0  0  0  0  0  0  0
    4.6125    2.7116    0.0000 O   0  0  0  0  0  0  0  0  0  0  0  0
    2.5262    1.1632    0.0000 C   0  0  0  0  0  0  0  0  0  0  0  0
  1  2  1  0
  2  3  1  0
  2 13  1  0
  3  4  1  0
  4  5  1  0
  4 11  2  0
  5  6  1  0
  5  7  2  0
  7  8  1  0
  8  9  1  0
  8 10  2  0
 10 11  1  0
 11 12  1  0
 12 13  1  0
 13 14  1  0
 14 15  2  0
 14 21  1  0
 15 16  1  0
 16 17  2  0
 17 18  1  0
 17 19  1  0
 19 20  1  0
 19 21  2  0
M  END
>  <s_m_entry_id>  (153) 
277

>  <s_m_entry_name>  (153) 
SIM_Broad_MProResults_ligprep.277

>  <Mol2_MolInfo_Name>  (153) 
7747

>  <Mol2_MolInfo_Type>  (153) 
SMALL

>  <Mol2_MolInfo_Charge>  (153) 
USER_CHARGES

>  <Mol2_Substructures>  (153) 
     1 UNK         1 GROUP             0       ****    0 ROOT    

>  <Name>  (153) 
7747

>  <s_m_Source_Path>  (153) 
/home/jgilaber/drug_learning/drug_learning/datasets/SARS2

>  <s_m_Source_File>  (153) 
SIM_Broad_MProResults_ligprep.sd

>  <i_m_Source_File_Index>  (153) 
277

>  <s_m_subgroup_title>  (153) 
SIM_Broad_MProResults_ligprep

>  <s_m_subgroupid>  (153) 
SIM_Broad_MProResults_ligprep

>  <b_m_subgroup_collapsed>  (153) 
0

$$$$
3998
     RDKit          2D

 28 31  0  0  1  0  0  0  0  0999 V2000
   -9.0600   -0.0141    0.0000 C   0  0  0  0  0  0  0  0  0  0  0  0
   -7.6038    0.3459    0.0000 C   0  0  0  0  0  0  0  0  0  0  0  0
   -7.1875    1.7869    0.0000 C   0  0  0  0  0  0  0  0  0  0  0  0
   -5.7313    2.1469    0.0000 C   0  0  0  0  0  0  0  0  0  0  0  0
   -4.6915    1.0659    0.0000 C   0  0  0  0  0  0  0  0  0  0  0  0
   -3.2353    1.4259    0.0000 F   0  0  0  0  0  0  0  0  0  0  0  0
   -5.1078   -0.3752    0.0000 C   0  0  0  0  0  0  0  0  0  0  0  0
   -4.0680   -1.4563    0.0000 N   0  0  0  0  0  0  0  0  0  0  0  0
   -2.6118   -1.0963    0.0000 C   0  0  0  0  0  0  0  0  0  0  0  0
   -2.1955    0.3448    0.0000 O   0  0  0  0  0  0  0  0  0  0  0  0
   -1.5720   -2.1774    0.0000 N   0  0  0  0  0  0  0  0  0  0  0  0
   -0.1158   -1.8174    0.0000 C   0  0  0  0  0  0  0  0  0  0  0  0
    0.9241   -2.8984    0.0000 C   0  0  0  0  0  0  0  0  0  0  0  0
    2.3802   -2.5384    0.0000 C   0  0  0  0  0  0  0  0  0  0  0  0
    2.7965   -1.0974    0.0000 C   0  0  0  0  0  0  0  0  0  0  0  0
    1.7567   -0.0163    0.0000 C   0  0  0  0  0  0  0  0  0  0  0  0
    0.3005   -0.3763    0.0000 C   0  0  0  0  0  0  0  0  0  0  0  0
    4.2527   -0.7374    0.0000 C   0  0  0  0  0  0  0  0  0  0  0  0
    5.2925   -1.8184    0.0000 C   0  0  0  0  0  0  0  0  0  0  0  0
    6.7487   -1.4585    0.0000 C   0  0  0  0  0  0  0  0  0  0  0  0
    7.1650   -0.0174    0.0000 C   0  0  0  0  0  0  0  0  0  0  0  0
    6.1252    1.0637    0.0000 C   0  0  0  0  0  0  0  0  0  0  0  0
    6.2328    2.5598    0.0000 N   0  0  0  0  0  0  0  0  0  0  0  0
    4.8431    3.1245    0.0000 N   0  0  0  0  0  0  0  0  0  0  0  0
    3.8767    1.9773    0.0000 C   0  0  0  0  0  0  0  0  0  0  0  0
    2.3805    2.0849    0.0000 N   0  0  0  0  0  0  0  0  0  0  0  0
    4.6690    0.7037    0.0000 C   0  0  0  0  0  0  0  0  0  0  0  0
   -6.5640   -0.7352    0.0000 C   0  0  0  0  0  0  0  0  0  0  0  0
  1  2  1  0
  2  3  2  0
  2 28  1  0
  3  4  1  0
  4  5  2  0
  5  6  1  0
  5  7  1  0
  7  8  1  0
  7 28  2  0
  8  9  1  0
  9 10  2  0
  9 11  1  0
 11 12  1  0
 12 13  2  0
 12 17  1  0
 13 14  1  0
 14 15  2  0
 15 16  1  0
 15 18  1  0
 16 17  2  0
 18 19  2  0
 18 27  1  0
 19 20  1  0
 20 21  2  0
 21 22  1  0
 22 23  1  0
 22 27  2  0
 23 24  1  0
 24 25  2  0
 25 26  1  0
 25 27  1  0
M  END
>  <s_m_entry_id>  (154) 
199

>  <s_m_entry_name>  (154) 
SIM_Broad_MProResults_ligprep.199

>  <Mol2_MolInfo_Name>  (154) 
3998

>  <Mol2_MolInfo_Type>  (154) 
SMALL

>  <Mol2_MolInfo_Charge>  (154) 
USER_CHARGES

>  <Mol2_Substructures>  (154) 
     1 ****        1 GROUP             0       ****    0 ROOT    

>  <Name>  (154) 
3998

>  <s_m_Source_Path>  (154) 
/home/jgilaber/drug_learning/drug_learning/datasets/SARS2

>  <s_m_Source_File>  (154) 
SIM_Broad_MProResults_ligprep.sd

>  <i_m_Source_File_Index>  (154) 
199

>  <s_m_subgroup_title>  (154) 
SIM_Broad_MProResults_ligprep

>  <s_m_subgroupid>  (154) 
SIM_Broad_MProResults_ligprep

>  <b_m_subgroup_collapsed>  (154) 
0

$$$$
5316
     RDKit          2D

 13 14  0  0  1  0  0  0  0  0999 V2000
   -2.9474   -0.9689    0.0000 N   0  0  0  0  0  0  0  0  0  0  0  0
   -1.8867    0.0917    0.0000 C   0  0  0  0  0  0  0  0  0  0  0  0
   -2.2749    1.5406    0.0000 C   0  0  0  0  0  0  0  0  0  0  0  0
   -1.2143    2.6013    0.0000 C   0  0  0  0  0  0  0  0  0  0  0  0
    0.2346    2.2131    0.0000 C   0  0  0  0  0  0  0  0  0  0  0  0
    0.6229    0.7642    0.0000 C   0  0  0  0  0  0  0  0  0  0  0  0
    2.0717    0.3759    0.0000 C   0  0  0  0  0  0  0  0  0  0  0  0
    3.1324    1.4366    0.0000 O   0  0  0  0  0  0  0  0  0  0  0  0
    2.4600   -1.0730    0.0000 N   0  0  0  0  0  0  0  0  0  0  0  0
    1.3993   -2.1336    0.0000 N   0  0  0  0  0  0  0  0  0  0  0  0
   -0.0496   -1.7454    0.0000 C   0  0  0  0  0  0  0  0  0  0  0  0
   -1.1102   -2.8060    0.0000 O   0  0  0  0  0  0  0  0  0  0  0  0
   -0.4378   -0.2965    0.0000 C   0  0  0  0  0  0  0  0  0  0  0  0
  1  2  1  0
  2  3  2  0
  2 13  1  0
  3  4  1  0
  4  5  2  0
  5  6  1  0
  6  7  1  0
  6 13  2  0
  7  8  2  0
  7  9  1  0
  9 10  1  0
 10 11  1  0
 11 12  2  0
 11 13  1  0
M  END
>  <s_m_entry_id>  (155) 
266

>  <s_m_entry_name>  (155) 
SIM_Broad_MProResults_ligprep.266

>  <Mol2_MolInfo_Name>  (155) 
5316

>  <Mol2_MolInfo_Type>  (155) 
SMALL

>  <Mol2_MolInfo_Charge>  (155) 
USER_CHARGES

>  <Mol2_Substructures>  (155) 
     1 UNK         1 GROUP             0       ****    0 ROOT    

>  <Name>  (155) 
5316

>  <s_m_Source_Path>  (155) 
/home/jgilaber/drug_learning/drug_learning/datasets/SARS2

>  <s_m_Source_File>  (155) 
SIM_Broad_MProResults_ligprep.sd

>  <i_m_Source_File_Index>  (155) 
266

>  <s_m_subgroup_title>  (155) 
SIM_Broad_MProResults_ligprep

>  <s_m_subgroupid>  (155) 
SIM_Broad_MProResults_ligprep

>  <b_m_subgroup_collapsed>  (155) 
0

$$$$
703
     RDKit          2D

 13 13  0  0  1  0  0  0  0  0999 V2000
   -5.2067    0.9843    0.0000 C   0  0  0  0  0  0  0  0  0  0  0  0
   -4.1021   -0.0306    0.0000 N   0  0  0  0  0  0  0  0  0  0  0  0
   -2.6710    0.4186    0.0000 C   0  0  0  0  0  0  0  0  0  0  0  0
   -1.5664   -0.5963    0.0000 C   0  0  0  0  0  0  0  0  0  0  0  0
   -1.8930   -2.0603    0.0000 O   0  0  0  0  0  0  0  0  0  0  0  0
   -0.1352   -0.1472    0.0000 C   0  0  0  0  0  0  0  0  0  0  0  0
    0.1914    1.3168    0.0000 C   0  0  0  0  0  0  0  0  0  0  0  0
    1.6226    1.7660    0.0000 C   0  0  0  0  0  0  0  0  0  0  0  0
    2.7271    0.7511    0.0000 C   0  0  0  0  0  0  0  0  0  0  0  0
    4.1583    1.2003    0.0000 O   0  0  0  0  0  0  0  0  0  0  0  0
    2.4005   -0.7129    0.0000 C   0  0  0  0  0  0  0  0  0  0  0  0
    3.5051   -1.7278    0.0000 O   0  0  0  0  0  0  0  0  0  0  0  0
    0.9693   -1.1620    0.0000 C   0  0  0  0  0  0  0  0  0  0  0  0
  1  2  1  0
  2  3  1  0
  3  4  1  0
  4  5  1  0
  4  6  1  0
  6  7  2  0
  6 13  1  0
  7  8  1  0
  8  9  2  0
  9 10  1  0
  9 11  1  0
 11 12  1  0
 11 13  2  0
M  CHG  1   2   1
M  END
>  <s_m_entry_id>  (156) 
240

>  <s_m_entry_name>  (156) 
SIM_Broad_MProResults_ligprep.240

>  <Mol2_MolInfo_Name>  (156) 
703

>  <Mol2_MolInfo_Type>  (156) 
SMALL

>  <Mol2_MolInfo_Charge>  (156) 
USER_CHARGES

>  <Mol2_Substructures>  (156) 
     1 UNK         1 GROUP             0       ****    0 ROOT    

>  <Name>  (156) 
703

>  <s_m_Source_Path>  (156) 
/home/jgilaber/drug_learning/drug_learning/datasets/SARS2

>  <s_m_Source_File>  (156) 
SIM_Broad_MProResults_ligprep.sd

>  <i_m_Source_File_Index>  (156) 
240

>  <s_m_subgroup_title>  (156) 
SIM_Broad_MProResults_ligprep

>  <s_m_subgroupid>  (156) 
SIM_Broad_MProResults_ligprep

>  <b_m_subgroup_collapsed>  (156) 
0

$$$$
1102
     RDKit          2D

 26 29  0  0  1  0  0  0  0  0999 V2000
   -6.7923   -1.9123    0.0000 C   0  0  0  0  0  0  0  0  0  0  0  0
   -6.5211   -0.4371    0.0000 C   0  0  0  0  0  0  0  0  0  0  0  0
   -5.1079    0.0657    0.0000 S   0  0  0  0  0  0  0  0  0  0  0  0
   -4.6051   -1.3475    0.0000 O   0  0  0  0  0  0  0  0  0  0  0  0
   -5.6107    1.4790    0.0000 O   0  0  0  0  0  0  0  0  0  0  0  0
   -3.6947    0.5685    0.0000 N   0  0  0  0  0  0  0  0  0  0  0  0
   -2.3398   -0.0752    0.0000 C   0  0  0  0  0  0  0  0  0  0  0  0
   -1.6961    1.2796    0.0000 C   0  0  0  0  0  0  0  0  0  0  0  0
   -2.3398   -0.0752    0.0000 C   0  0  0  0  0  0  0  0  0  0  0  0
   -3.8350   -0.1951    0.0000 C   0  0  0  0  0  0  0  0  0  0  0  0
   -5.2568   -0.6733    0.0000 N   0  0  0  0  0  0  0  0  0  0  0  0
   -3.0509    1.9234    0.0000 C   0  0  0  0  0  0  0  0  0  0  0  0
   -0.3412    0.6358    0.0000 N   0  0  0  0  0  0  0  0  0  0  0  0
    0.9759    1.3535    0.0000 C   0  0  0  0  0  0  0  0  0  0  0  0
    2.0655    0.3226    0.0000 C   0  0  0  0  0  0  0  0  0  0  0  0
    1.4217   -1.0322    0.0000 C   0  0  0  0  0  0  0  0  0  0  0  0
   -0.0657   -0.8386    0.0000 N   0  0  0  0  0  0  0  0  0  0  0  0
    3.5400    0.5981    0.0000 C   0  0  0  0  0  0  0  0  0  0  0  0
    4.0386    2.0128    0.0000 N   0  0  0  0  0  0  0  0  0  0  0  0
    5.5131    2.2884    0.0000 C   0  0  0  0  0  0  0  0  0  0  0  0
    6.4889    1.1492    0.0000 N   0  0  0  0  0  0  0  0  0  0  0  0
    5.9903   -0.2655    0.0000 C   0  0  0  0  0  0  0  0  0  0  0  0
    6.7080   -1.5827    0.0000 N   0  0  0  0  0  0  0  0  0  0  0  0
    5.6771   -2.6723    0.0000 C   0  0  0  0  0  0  0  0  0  0  0  0
    4.3222   -2.0285    0.0000 C   0  0  0  0  0  0  0  0  0  0  0  0
    4.5158   -0.5410    0.0000 C   0  0  0  0  0  0  0  0  0  0  0  0
  1  2  1  0
  2  3  1  0
  3  4  2  0
  3  5  2  0
  3  6  1  0
  6  7  1  0
  6 12  1  0
  7  8  1  0
  8  9  1  0
  8 12  1  0
  8 13  1  0
  9 10  1  0
 10 11  3  0
 13 14  1  0
 13 17  1  0
 14 15  2  0
 15 16  1  0
 15 18  1  0
 16 17  2  0
 18 19  2  0
 18 26  1  0
 19 20  1  0
 20 21  2  0
 21 22  1  0
 22 23  1  0
 22 26  2  0
 23 24  1  0
 24 25  2  0
 25 26  1  0
M  END
>  <s_m_entry_id>  (157) 
194

>  <s_m_entry_name>  (157) 
SIM_Broad_MProResults_ligprep.194

>  <Mol2_MolInfo_Name>  (157) 
1102

>  <Mol2_MolInfo_Type>  (157) 
SMALL

>  <Mol2_MolInfo_Charge>  (157) 
USER_CHARGES

>  <Mol2_Substructures>  (157) 
     1 ****        1 GROUP             0       ****    0 ROOT    

>  <Name>  (157) 
1102

>  <s_m_Source_Path>  (157) 
/home/jgilaber/drug_learning/drug_learning/datasets/SARS2

>  <s_m_Source_File>  (157) 
SIM_Broad_MProResults_ligprep.sd

>  <i_m_Source_File_Index>  (157) 
194

>  <s_m_subgroup_title>  (157) 
SIM_Broad_MProResults_ligprep

>  <s_m_subgroupid>  (157) 
SIM_Broad_MProResults_ligprep

>  <b_m_subgroup_collapsed>  (157) 
0

$$$$
511
     RDKit          2D

 22 22  0  0  1  0  0  0  0  0999 V2000
   -0.1132   -1.9045    0.0000 C   0  0  0  0  0  0  0  0  0  0  0  0
    0.0221   -0.4106    0.0000 C   0  0  0  0  0  0  0  0  0  0  0  0
   -1.2040    0.4535    0.0000 C   0  0  0  0  0  0  0  0  0  0  0  0
   -2.5654   -0.1763    0.0000 C   0  0  0  0  0  0  0  0  0  0  0  0
   -3.7915    0.6878    0.0000 C   0  0  0  0  0  0  0  0  0  0  0  0
   -5.1529    0.0581    0.0000 C   0  0  0  0  0  0  0  0  0  0  0  0
   -6.3790    0.9222    0.0000 C   0  0  0  0  0  0  0  0  0  0  0  0
   -7.7404    0.2924    0.0000 C   0  0  0  0  0  0  0  0  0  0  0  0
   -7.8756   -1.2015    0.0000 O   0  0  0  0  0  0  0  0  0  0  0  0
   -8.9665    1.1565    0.0000 O   0  0  0  0  0  0  0  0  0  0  0  0
   -5.2881   -1.4358    0.0000 C   0  0  0  0  0  0  0  0  0  0  0  0
    1.3835    0.2192    0.0000 C   0  0  0  0  0  0  0  0  0  0  0  0
    2.6096   -0.6449    0.0000 C   0  0  0  0  0  0  0  0  0  0  0  0
    3.9710   -0.0151    0.0000 C   0  0  0  0  0  0  0  0  0  0  0  0
    4.1063    1.4788    0.0000 C   0  0  0  0  0  0  0  0  0  0  0  0
    2.8802    2.3429    0.0000 C   0  0  0  0  0  0  0  0  0  0  0  0
    5.4676    2.1086    0.0000 C   0  0  0  0  0  0  0  0  0  0  0  0
    6.6938    1.2445    0.0000 C   0  0  0  0  0  0  0  0  0  0  0  0
    6.5585   -0.2494    0.0000 C   0  0  0  0  0  0  0  0  0  0  0  0
    5.1971   -0.8792    0.0000 C   0  0  0  0  0  0  0  0  0  0  0  0
    6.0537   -2.1105    0.0000 C   0  0  0  0  0  0  0  0  0  0  0  0
    4.1332   -1.9366    0.0000 C   0  0  0  0  0  0  0  0  0  0  0  0
  1  2  1  0
  2  3  2  0
  2 12  1  0
  3  4  1  0
  4  5  2  0
  5  6  1  0
  6  7  2  0
  6 11  1  0
  7  8  1  0
  8  9  2  0
  8 10  1  0
 12 13  2  0
 13 14  1  0
 14 15  2  0
 14 20  1  0
 15 16  1  0
 15 17  1  0
 17 18  1  0
 18 19  1  0
 19 20  1  0
 20 21  1  0
 20 22  1  0
M  CHG  1  10  -1
M  END
>  <s_m_entry_id>  (158) 
181

>  <s_m_entry_name>  (158) 
SIM_Broad_MProResults_ligprep.181

>  <Mol2_MolInfo_Name>  (158) 
511

>  <Mol2_MolInfo_Type>  (158) 
SMALL

>  <Mol2_MolInfo_Charge>  (158) 
USER_CHARGES

>  <Mol2_Substructures>  (158) 
     1 ****        1 GROUP             0       ****    0 ROOT    

>  <Name>  (158) 
511

>  <s_m_Source_Path>  (158) 
/home/jgilaber/drug_learning/drug_learning/datasets/SARS2

>  <s_m_Source_File>  (158) 
SIM_Broad_MProResults_ligprep.sd

>  <i_m_Source_File_Index>  (158) 
181

>  <s_m_subgroup_title>  (158) 
SIM_Broad_MProResults_ligprep

>  <s_m_subgroupid>  (158) 
SIM_Broad_MProResults_ligprep

>  <b_m_subgroup_collapsed>  (158) 
0

$$$$
604
     RDKit          2D

 30 31  0  0  1  0  0  0  0  0999 V2000
  -10.1351    0.1791    0.0000 C   0  0  0  0  0  0  0  0  0  0  0  0
   -8.7751   -0.4538    0.0000 C   0  0  0  0  0  0  0  0  0  0  0  0
   -7.5471    0.4076    0.0000 C   0  0  0  0  0  0  0  0  0  0  0  0
   -6.1871   -0.2253    0.0000 C   0  0  0  0  0  0  0  0  0  0  0  0
   -6.0552   -1.7195    0.0000 O   0  0  0  0  0  0  0  0  0  0  0  0
   -4.9591    0.6361    0.0000 O   0  0  0  0  0  0  0  0  0  0  0  0
   -3.5991    0.0032    0.0000 C   0  0  0  0  0  0  0  0  0  0  0  0
   -2.3711    0.8646    0.0000 O   0  0  0  0  0  0  0  0  0  0  0  0
   -1.0111    0.2317    0.0000 C   0  0  0  0  0  0  0  0  0  0  0  0
   -0.8792   -1.2625    0.0000 O   0  0  0  0  0  0  0  0  0  0  0  0
    0.2169    1.0931    0.0000 C   0  0  0  0  0  0  0  0  0  0  0  0
    0.0850    2.5872    0.0000 C   0  0  0  0  0  0  0  0  0  0  0  0
   -1.2750    3.2201    0.0000 C   0  0  0  0  0  0  0  0  0  0  0  0
    1.3130    3.4486    0.0000 N   0  0  0  0  0  0  0  0  0  0  0  0
    2.6730    2.8157    0.0000 C   0  0  0  0  0  0  0  0  0  0  0  0
    2.8049    1.3216    0.0000 C   0  0  0  0  0  0  0  0  0  0  0  0
    1.5769    0.4602    0.0000 C   0  0  0  0  0  0  0  0  0  0  0  0
    1.7088   -1.0340    0.0000 C   0  0  0  0  0  0  0  0  0  0  0  0
    0.4808   -1.8953    0.0000 C   0  0  0  0  0  0  0  0  0  0  0  0
    0.6127   -3.3895    0.0000 C   0  0  0  0  0  0  0  0  0  0  0  0
    1.9727   -4.0223    0.0000 C   0  0  0  0  0  0  0  0  0  0  0  0
    3.2007   -3.1610    0.0000 C   0  0  0  0  0  0  0  0  0  0  0  0
    4.5607   -3.7938    0.0000 Cl  0  0  0  0  0  0  0  0  0  0  0  0
    3.0688   -1.6668    0.0000 C   0  0  0  0  0  0  0  0  0  0  0  0
    3.9374   -1.2041    0.0000 Cl  0  0  0  0  0  0  0  0  0  0  0  0
    4.1649    0.6887    0.0000 C   0  0  0  0  0  0  0  0  0  0  0  0
    4.3703   -0.2738    0.0000 O   0  0  0  0  0  0  0  0  0  0  0  0
    5.3929    1.5501    0.0000 O   0  0  0  0  0  0  0  0  0  0  0  0
    6.7529    0.9172    0.0000 C   0  0  0  0  0  0  0  0  0  0  0  0
    3.9010    3.6771    0.0000 C   0  0  0  0  0  0  0  0  0  0  0  0
  1  2  1  0
  2  3  1  0
  3  4  1  0
  4  5  2  0
  4  6  1  0
  6  7  1  0
  7  8  1  0
  8  9  1  0
  9 10  2  0
  9 11  1  0
 11 12  2  0
 11 17  1  0
 12 13  1  0
 12 14  1  0
 14 15  1  0
 15 16  2  0
 15 30  1  0
 16 17  1  0
 16 26  1  0
 17 18  1  0
 18 19  2  0
 18 24  1  0
 19 20  1  0
 20 21  2  0
 21 22  1  0
 22 23  1  0
 22 24  2  0
 24 25  1  0
 26 27  2  0
 26 28  1  0
 28 29  1  0
M  END
>  <s_m_entry_id>  (159) 
182

>  <s_m_entry_name>  (159) 
SIM_Broad_MProResults_ligprep.182

>  <Mol2_MolInfo_Name>  (159) 
604

>  <Mol2_MolInfo_Type>  (159) 
SMALL

>  <Mol2_MolInfo_Charge>  (159) 
USER_CHARGES

>  <Mol2_Substructures>  (159) 
     1 ****        1 GROUP             0       ****    0 ROOT    

>  <Name>  (159) 
604

>  <s_m_Source_Path>  (159) 
/home/jgilaber/drug_learning/drug_learning/datasets/SARS2

>  <s_m_Source_File>  (159) 
SIM_Broad_MProResults_ligprep.sd

>  <i_m_Source_File_Index>  (159) 
182

>  <s_m_subgroup_title>  (159) 
SIM_Broad_MProResults_ligprep

>  <s_m_subgroupid>  (159) 
SIM_Broad_MProResults_ligprep

>  <b_m_subgroup_collapsed>  (159) 
0

$$$$
8081
     RDKit          2D

 27 29  0  0  1  0  0  0  0  0999 V2000
   -6.4100    3.3717    0.0000 C   0  0  0  0  0  0  0  0  0  0  0  0
   -5.7194    2.0402    0.0000 O   0  0  0  0  0  0  0  0  0  0  0  0
   -6.5272    0.7763    0.0000 C   0  0  0  0  0  0  0  0  0  0  0  0
   -8.0257    0.8439    0.0000 C   0  0  0  0  0  0  0  0  0  0  0  0
   -5.8365   -0.5553    0.0000 C   0  0  0  0  0  0  0  0  0  0  0  0
   -6.6444   -1.8192    0.0000 O   0  0  0  0  0  0  0  0  0  0  0  0
   -4.3381   -0.6229    0.0000 N   0  0  0  0  0  0  0  0  0  0  0  0
   -3.5302    0.6410    0.0000 C   0  0  0  0  0  0  0  0  0  0  0  0
   -2.0318    0.5733    0.0000 C   0  0  0  0  0  0  0  0  0  0  0  0
   -1.3411   -0.7582    0.0000 N   0  0  0  0  0  0  0  0  0  0  0  0
   -2.1489   -2.0221    0.0000 C   0  0  0  0  0  0  0  0  0  0  0  0
   -3.6474   -1.9545    0.0000 C   0  0  0  0  0  0  0  0  0  0  0  0
    0.1574   -0.8258    0.0000 C   0  0  0  0  0  0  0  0  0  0  0  0
    0.8480   -2.1574    0.0000 N   0  0  0  0  0  0  0  0  0  0  0  0
    2.3465   -2.2250    0.0000 C   0  0  0  0  0  0  0  0  0  0  0  0
    3.0371   -3.5566    0.0000 N   0  0  0  0  0  0  0  0  0  0  0  0
    3.1543   -0.9611    0.0000 C   0  0  0  0  0  0  0  0  0  0  0  0
    4.6528   -1.0288    0.0000 C   0  0  0  0  0  0  0  0  0  0  0  0
    5.4606    0.2351    0.0000 C   0  0  0  0  0  0  0  0  0  0  0  0
    6.9591    0.1675    0.0000 O   0  0  0  0  0  0  0  0  0  0  0  0
    7.6497   -1.1641    0.0000 C   0  0  0  0  0  0  0  0  0  0  0  0
    4.7699    1.5667    0.0000 C   0  0  0  0  0  0  0  0  0  0  0  0
    5.5778    2.8305    0.0000 O   0  0  0  0  0  0  0  0  0  0  0  0
    4.8871    4.1621    0.0000 C   0  0  0  0  0  0  0  0  0  0  0  0
    3.2715    1.6343    0.0000 C   0  0  0  0  0  0  0  0  0  0  0  0
    2.4637    0.3704    0.0000 C   0  0  0  0  0  0  0  0  0  0  0  0
    0.9652    0.4380    0.0000 N   0  0  0  0  0  0  0  0  0  0  0  0
  1  2  1  0
  2  3  1  0
  3  4  1  0
  3  5  1  0
  5  6  2  0
  5  7  1  0
  7  8  1  0
  7 12  1  0
  8  9  1  0
  9 10  1  0
 10 11  1  0
 10 13  1  0
 11 12  1  0
 13 14  2  0
 13 27  1  0
 14 15  1  0
 15 16  1  0
 15 17  2  0
 17 18  1  0
 17 26  1  0
 18 19  2  0
 19 20  1  0
 19 22  1  0
 20 21  1  0
 22 23  1  0
 22 25  2  0
 23 24  1  0
 25 26  1  0
 26 27  2  0
M  END
>  <s_m_entry_id>  (160) 
283

>  <s_m_entry_name>  (160) 
SIM_Broad_MProResults_ligprep.283

>  <Mol2_MolInfo_Name>  (160) 
8081

>  <Mol2_MolInfo_Type>  (160) 
SMALL

>  <Mol2_MolInfo_Charge>  (160) 
USER_CHARGES

>  <Mol2_Substructures>  (160) 
     1 UNK         1 GROUP             0       ****    0 ROOT    

>  <Name>  (160) 
8081

>  <s_m_Source_Path>  (160) 
/home/jgilaber/drug_learning/drug_learning/datasets/SARS2

>  <s_m_Source_File>  (160) 
SIM_Broad_MProResults_ligprep.sd

>  <i_m_Source_File_Index>  (160) 
283

>  <s_m_subgroup_title>  (160) 
SIM_Broad_MProResults_ligprep

>  <s_m_subgroupid>  (160) 
SIM_Broad_MProResults_ligprep

>  <b_m_subgroup_collapsed>  (160) 
0

$$$$
8837
     RDKit          2D

 12 12  0  0  1  0  0  0  0  0999 V2000
   -4.5107    0.4816    0.0000 N   0  0  0  0  0  0  0  0  0  0  0  0
   -3.0433    0.7929    0.0000 C   0  0  0  0  0  0  0  0  0  0  0  0
   -2.0401   -0.3222    0.0000 C   0  0  0  0  0  0  0  0  0  0  0  0
   -2.5041   -1.7486    0.0000 O   0  0  0  0  0  0  0  0  0  0  0  0
   -0.5727   -0.0109    0.0000 C   0  0  0  0  0  0  0  0  0  0  0  0
   -0.1087    1.4156    0.0000 C   0  0  0  0  0  0  0  0  0  0  0  0
    1.3587    1.7269    0.0000 C   0  0  0  0  0  0  0  0  0  0  0  0
    2.3620    0.6118    0.0000 C   0  0  0  0  0  0  0  0  0  0  0  0
    3.8293    0.9231    0.0000 O   0  0  0  0  0  0  0  0  0  0  0  0
    1.8979   -0.8146    0.0000 C   0  0  0  0  0  0  0  0  0  0  0  0
    2.9012   -1.9297    0.0000 O   0  0  0  0  0  0  0  0  0  0  0  0
    0.4306   -1.1259    0.0000 C   0  0  0  0  0  0  0  0  0  0  0  0
  1  2  1  0
  2  3  1  0
  3  4  1  0
  3  5  1  0
  5  6  2  0
  5 12  1  0
  6  7  1  0
  7  8  2  0
  8  9  1  0
  8 10  1  0
 10 11  1  0
 10 12  2  0
M  CHG  1   1   1
M  END
>  <s_m_entry_id>  (161) 
286

>  <s_m_entry_name>  (161) 
SIM_Broad_MProResults_ligprep.286

>  <Mol2_MolInfo_Name>  (161) 
8837

>  <Mol2_MolInfo_Type>  (161) 
SMALL

>  <Mol2_MolInfo_Charge>  (161) 
USER_CHARGES

>  <Mol2_Substructures>  (161) 
     1 UNK         1 GROUP             0       ****    0 ROOT    

>  <Name>  (161) 
8837

>  <s_m_Source_Path>  (161) 
/home/jgilaber/drug_learning/drug_learning/datasets/SARS2

>  <s_m_Source_File>  (161) 
SIM_Broad_MProResults_ligprep.sd

>  <i_m_Source_File_Index>  (161) 
286

>  <s_m_subgroup_title>  (161) 
SIM_Broad_MProResults_ligprep

>  <s_m_subgroupid>  (161) 
SIM_Broad_MProResults_ligprep

>  <b_m_subgroup_collapsed>  (161) 
0

$$$$
1076
     RDKit          2D

 23 26  0  0  1  0  0  0  0  0999 V2000
    5.8747   -2.7935    0.0000 N   0  0  0  0  0  0  0  0  0  0  0  0
    4.4380   -2.3624    0.0000 C   0  0  0  0  0  0  0  0  0  0  0  0
    3.0012   -1.9313    0.0000 C   0  0  0  0  0  0  0  0  0  0  0  0
    2.6562   -0.4716    0.0000 C   0  0  0  0  0  0  0  0  0  0  0  0
    3.7479    0.5571    0.0000 C   0  0  0  0  0  0  0  0  0  0  0  0
    3.5573    2.0450    0.0000 C   0  0  0  0  0  0  0  0  0  0  0  0
    4.9135    2.6860    0.0000 C   0  0  0  0  0  0  0  0  0  0  0  0
    5.9422    1.5943    0.0000 C   0  0  0  0  0  0  0  0  0  0  0  0
    5.2218    0.2786    0.0000 C   0  0  0  0  0  0  0  0  0  0  0  0
    1.2195   -0.0405    0.0000 N   0  0  0  0  0  0  0  0  0  0  0  0
    0.0262   -0.9494    0.0000 C   0  0  0  0  0  0  0  0  0  0  0  0
   -1.2070   -0.0955    0.0000 C   0  0  0  0  0  0  0  0  0  0  0  0
   -0.7759    1.3412    0.0000 C   0  0  0  0  0  0  0  0  0  0  0  0
    0.7237    1.3752    0.0000 N   0  0  0  0  0  0  0  0  0  0  0  0
   -2.6227   -0.5912    0.0000 C   0  0  0  0  0  0  0  0  0  0  0  0
   -2.9012   -2.0651    0.0000 N   0  0  0  0  0  0  0  0  0  0  0  0
   -4.3169   -2.5609    0.0000 C   0  0  0  0  0  0  0  0  0  0  0  0
   -5.4541   -1.5827    0.0000 N   0  0  0  0  0  0  0  0  0  0  0  0
   -5.1756   -0.1088    0.0000 C   0  0  0  0  0  0  0  0  0  0  0  0
   -6.0845    1.0844    0.0000 N   0  0  0  0  0  0  0  0  0  0  0  0
   -5.2306    2.3176    0.0000 C   0  0  0  0  0  0  0  0  0  0  0  0
   -3.7938    1.8866    0.0000 C   0  0  0  0  0  0  0  0  0  0  0  0
   -3.7599    0.3869    0.0000 C   0  0  0  0  0  0  0  0  0  0  0  0
  1  2  3  0
  2  3  1  0
  3  4  1  0
  4  5  1  0
  4 10  1  0
  5  6  1  0
  5  9  1  0
  6  7  1  0
  7  8  1  0
  8  9  1  0
 10 11  1  0
 10 14  1  0
 11 12  2  0
 12 13  1  0
 12 15  1  0
 13 14  2  0
 15 16  2  0
 15 23  1  0
 16 17  1  0
 17 18  2  0
 18 19  1  0
 19 20  1  0
 19 23  2  0
 20 21  1  0
 21 22  2  0
 22 23  1  0
M  END
>  <s_m_entry_id>  (162) 
187

>  <s_m_entry_name>  (162) 
SIM_Broad_MProResults_ligprep.187

>  <Mol2_MolInfo_Name>  (162) 
1076

>  <Mol2_MolInfo_Type>  (162) 
SMALL

>  <Mol2_MolInfo_Charge>  (162) 
USER_CHARGES

>  <Mol2_Substructures>  (162) 
     1 ****        1 GROUP             0       ****    0 ROOT    

>  <Name>  (162) 
1076

>  <s_m_Source_Path>  (162) 
/home/jgilaber/drug_learning/drug_learning/datasets/SARS2

>  <s_m_Source_File>  (162) 
SIM_Broad_MProResults_ligprep.sd

>  <i_m_Source_File_Index>  (162) 
187

>  <s_m_subgroup_title>  (162) 
SIM_Broad_MProResults_ligprep

>  <s_m_subgroupid>  (162) 
SIM_Broad_MProResults_ligprep

>  <b_m_subgroup_collapsed>  (162) 
0

$$$$
7017
     RDKit          2D

 26 30  0  0  1  0  0  0  0  0999 V2000
   -7.4906   -0.3468    0.0000 C   0  0  0  0  0  0  0  0  0  0  0  0
   -6.0222   -0.0407    0.0000 N   0  0  0  0  0  0  0  0  0  0  0  0
   -5.4068    1.3272    0.0000 C   0  0  0  0  0  0  0  0  0  0  0  0
   -3.9156    1.1646    0.0000 C   0  0  0  0  0  0  0  0  0  0  0  0
   -3.6095   -0.3038    0.0000 C   0  0  0  0  0  0  0  0  0  0  0  0
   -4.9114   -1.0487    0.0000 C   0  0  0  0  0  0  0  0  0  0  0  0
   -3.4203   -1.2113    0.0000 C   0  0  0  0  0  0  0  0  0  0  0  0
   -2.8048    0.1566    0.0000 N   0  0  0  0  0  0  0  0  0  0  0  0
   -1.3364    0.4627    0.0000 C   0  0  0  0  0  0  0  0  0  0  0  0
   -0.3371   -0.6559    0.0000 C   0  0  0  0  0  0  0  0  0  0  0  0
    1.1314   -0.3498    0.0000 C   0  0  0  0  0  0  0  0  0  0  0  0
    2.1307   -1.4684    0.0000 N   0  0  0  0  0  0  0  0  0  0  0  0
    3.5991   -1.1623    0.0000 C   0  0  0  0  0  0  0  0  0  0  0  0
    4.0682    0.2625    0.0000 C   0  0  0  0  0  0  0  0  0  0  0  0
    5.5367    0.5686    0.0000 C   0  0  0  0  0  0  0  0  0  0  0  0
    6.0057    1.9934    0.0000 O   0  0  0  0  0  0  0  0  0  0  0  0
    6.5360   -0.5500    0.0000 O   0  0  0  0  0  0  0  0  0  0  0  0
    3.0689    1.3811    0.0000 C   0  0  0  0  0  0  0  0  0  0  0  0
    3.5380    2.8059    0.0000 O   0  0  0  0  0  0  0  0  0  0  0  0
    1.6005    1.0750    0.0000 C   0  0  0  0  0  0  0  0  0  0  0  0
    0.6011    2.1936    0.0000 C   0  0  0  0  0  0  0  0  0  0  0  0
   -0.8673    1.8875    0.0000 C   0  0  0  0  0  0  0  0  0  0  0  0
   -1.8666    3.0061    0.0000 F   0  0  0  0  0  0  0  0  0  0  0  0
    1.6616   -2.8932    0.0000 C   0  0  0  0  0  0  0  0  0  0  0  0
    1.9678   -4.3616    0.0000 C   0  0  0  0  0  0  0  0  0  0  0  0
    0.5430   -3.8925    0.0000 C   0  0  0  0  0  0  0  0  0  0  0  0
  1  2  1  0
  2  3  1  0
  2  6  1  0
  3  4  1  0
  4  5  1  0
  4  8  1  0
  5  6  1  0
  6  7  1  0
  7  8  1  0
  8  9  1  0
  9 10  2  0
  9 22  1  0
 10 11  1  0
 11 12  1  0
 11 20  2  0
 12 13  1  0
 12 24  1  0
 13 14  2  0
 14 15  1  0
 14 18  1  0
 15 16  2  0
 15 17  1  0
 18 19  2  0
 18 20  1  0
 20 21  1  0
 21 22  2  0
 22 23  1  0
 24 25  1  0
 24 26  1  0
 25 26  1  0
M  CHG  1   2   1
M  END
>  <s_m_entry_id>  (163) 
214

>  <s_m_entry_name>  (163) 
SIM_Broad_MProResults_ligprep.214

>  <Mol2_MolInfo_Name>  (163) 
7017

>  <Mol2_MolInfo_Type>  (163) 
SMALL

>  <Mol2_MolInfo_Charge>  (163) 
USER_CHARGES

>  <Mol2_Substructures>  (163) 
     1 ****        1 GROUP             0       ****    0 ROOT    

>  <Name>  (163) 
7017

>  <s_m_Source_Path>  (163) 
/home/jgilaber/drug_learning/drug_learning/datasets/SARS2

>  <s_m_Source_File>  (163) 
SIM_Broad_MProResults_ligprep.sd

>  <i_m_Source_File_Index>  (163) 
214

>  <s_m_subgroup_title>  (163) 
SIM_Broad_MProResults_ligprep

>  <s_m_subgroupid>  (163) 
SIM_Broad_MProResults_ligprep

>  <b_m_subgroup_collapsed>  (163) 
0

$$$$
98
     RDKit          2D

 21 23  0  0  1  0  0  0  0  0999 V2000
    5.8422    1.3744    0.0000 O   0  0  0  0  0  0  0  0  0  0  0  0
    4.4936    0.7178    0.0000 C   0  0  0  0  0  0  0  0  0  0  0  0
    4.3880   -0.7785    0.0000 C   0  0  0  0  0  0  0  0  0  0  0  0
    3.0394   -1.4352    0.0000 C   0  0  0  0  0  0  0  0  0  0  0  0
    1.7964   -0.5956    0.0000 C   0  0  0  0  0  0  0  0  0  0  0  0
    1.9020    0.9007    0.0000 C   0  0  0  0  0  0  0  0  0  0  0  0
    3.2506    1.5574    0.0000 C   0  0  0  0  0  0  0  0  0  0  0  0
    0.4478   -1.2523    0.0000 C   0  0  0  0  0  0  0  0  0  0  0  0
    0.4543   -2.7523    0.0000 C   0  0  0  0  0  0  0  0  0  0  0  0
   -0.7144   -3.6926    0.0000 N   0  0  0  0  0  0  0  0  0  0  0  0
   -2.1783   -3.3651    0.0000 C   0  0  0  0  0  0  0  0  0  0  0  0
   -2.8349   -2.0165    0.0000 C   0  0  0  0  0  0  0  0  0  0  0  0
   -2.1900   -0.6622    0.0000 C   0  0  0  0  0  0  0  0  0  0  0  0
   -3.2150    0.4329    0.0000 C   0  0  0  0  0  0  0  0  0  0  0  0
   -4.6759    0.0928    0.0000 Cl  0  0  0  0  0  0  0  0  0  0  0  0
   -2.7791    1.8682    0.0000 C   0  0  0  0  0  0  0  0  0  0  0  0
   -3.8041    2.9633    0.0000 O   0  0  0  0  0  0  0  0  0  0  0  0
   -1.3181    2.2083    0.0000 C   0  0  0  0  0  0  0  0  0  0  0  0
   -0.8822    3.6435    0.0000 O   0  0  0  0  0  0  0  0  0  0  0  0
   -0.2931    1.1131    0.0000 C   0  0  0  0  0  0  0  0  0  0  0  0
   -0.7290   -0.3221    0.0000 C   0  0  0  0  0  0  0  0  0  0  0  0
  1  2  1  0
  2  3  2  0
  2  7  1  0
  3  4  1  0
  4  5  2  0
  5  6  1  0
  5  8  1  0
  6  7  2  0
  8  9  1  0
  8 21  1  0
  9 10  1  0
 10 11  1  0
 11 12  1  0
 12 13  1  0
 13 14  1  0
 13 21  2  0
 14 15  1  0
 14 16  2  0
 16 17  1  0
 16 18  1  0
 18 19  1  0
 18 20  2  0
 20 21  1  0
M  CHG  2  10   1  17  -1
M  END
>  <s_m_entry_id>  (164) 
171

>  <s_m_entry_name>  (164) 
SIM_Broad_MProResults_ligprep.171

>  <Mol2_MolInfo_Name>  (164) 
98

>  <Mol2_MolInfo_Type>  (164) 
SMALL

>  <Mol2_MolInfo_Charge>  (164) 
USER_CHARGES

>  <Mol2_Substructures>  (164) 
     1 ****        1 GROUP             0       ****    0 ROOT    

>  <Name>  (164) 
98

>  <s_m_Source_Path>  (164) 
/home/jgilaber/drug_learning/drug_learning/datasets/SARS2

>  <s_m_Source_File>  (164) 
SIM_Broad_MProResults_ligprep.sd

>  <i_m_Source_File_Index>  (164) 
171

>  <s_m_subgroup_title>  (164) 
SIM_Broad_MProResults_ligprep

>  <s_m_subgroupid>  (164) 
SIM_Broad_MProResults_ligprep

>  <b_m_subgroup_collapsed>  (164) 
0

$$$$
3038
     RDKit          2D

 54 60  0  0  1  0  0  0  0  0999 V2000
    0.3743   10.5798    0.0000 C   0  0  0  0  0  0  0  0  0  0  0  0
   -0.0127    9.1306    0.0000 O   0  0  0  0  0  0  0  0  0  0  0  0
    1.0489    8.0708    0.0000 C   0  0  0  0  0  0  0  0  0  0  0  0
    2.4974    8.4603    0.0000 C   0  0  0  0  0  0  0  0  0  0  0  0
    3.5590    7.4005    0.0000 C   0  0  0  0  0  0  0  0  0  0  0  0
    3.1720    5.9513    0.0000 C   0  0  0  0  0  0  0  0  0  0  0  0
    4.2335    4.8915    0.0000 N   0  0  0  0  0  0  0  0  0  0  0  0
    3.8465    3.4423    0.0000 C   0  0  0  0  0  0  0  0  0  0  0  0
    5.3409    3.3128    0.0000 C   0  0  0  0  0  0  0  0  0  0  0  0
    6.7009    2.6801    0.0000 C   0  0  0  0  0  0  0  0  0  0  0  0
    7.7625    1.6203    0.0000 C   0  0  0  0  0  0  0  0  0  0  0  0
    8.3976    0.2614    0.0000 C   0  0  0  0  0  0  0  0  0  0  0  0
    8.5296   -1.2328    0.0000 C   0  0  0  0  0  0  0  0  0  0  0  0
    8.1426   -2.6820    0.0000 C   0  0  0  0  0  0  0  0  0  0  0  0
    8.7776   -4.0409    0.0000 C   0  0  0  0  0  0  0  0  0  0  0  0
    7.2832   -3.9115    0.0000 C   0  0  0  0  0  0  0  0  0  0  0  0
    6.0552   -4.7729    0.0000 O   0  0  0  0  0  0  0  0  0  0  0  0
    4.6067   -5.1623    0.0000 C   0  0  0  0  0  0  0  0  0  0  0  0
    4.7387   -6.6565    0.0000 O   0  0  0  0  0  0  0  0  0  0  0  0
    3.1123   -5.0329    0.0000 N   0  0  0  0  0  0  0  0  0  0  0  0
    1.7523   -4.4001    0.0000 C   0  0  0  0  0  0  0  0  0  0  0  0
    0.6907   -3.3403    0.0000 C   0  0  0  0  0  0  0  0  0  0  0  0
   -0.6331   -4.0456    0.0000 O   0  0  0  0  0  0  0  0  0  0  0  0
    0.0557   -1.9814    0.0000 N   0  0  0  0  0  0  0  0  0  0  0  0
   -0.0763   -0.4872    0.0000 C   0  0  0  0  0  0  0  0  0  0  0  0
    0.3107    0.9620    0.0000 C   0  0  0  0  0  0  0  0  0  0  0  0
   -1.1506    0.6233    0.0000 C   0  0  0  0  0  0  0  0  0  0  0  0
   -1.2801   -0.8711    0.0000 C   0  0  0  0  0  0  0  0  0  0  0  0
   -2.5652   -1.6447    0.0000 C   0  0  0  0  0  0  0  0  0  0  0  0
   -2.5377   -3.1445    0.0000 O   0  0  0  0  0  0  0  0  0  0  0  0
   -3.8777   -0.9186    0.0000 N   0  0  0  0  0  0  0  0  0  0  0  0
   -5.1628   -1.6923    0.0000 C   0  0  0  0  0  0  0  0  0  0  0  0
   -6.1058   -2.8588    0.0000 C   0  0  0  0  0  0  0  0  0  0  0  0
   -4.6241   -3.0922    0.0000 C   0  0  0  0  0  0  0  0  0  0  0  0
   -3.4576   -4.0352    0.0000 C   0  0  0  0  0  0  0  0  0  0  0  0
   -3.6910   -5.5169    0.0000 C   0  0  0  0  0  0  0  0  0  0  0  0
   -6.1479   -0.5610    0.0000 C   0  0  0  0  0  0  0  0  0  0  0  0
   -5.6607    0.8577    0.0000 O   0  0  0  0  0  0  0  0  0  0  0  0
   -7.6201   -0.8485    0.0000 N   0  0  0  0  0  0  0  0  0  0  0  0
   -8.6051    0.2827    0.0000 S   0  0  0  0  0  0  0  0  0  0  0  0
   -7.4739    1.2678    0.0000 O   0  0  0  0  0  0  0  0  0  0  0  0
   -9.7363   -0.7023    0.0000 O   0  0  0  0  0  0  0  0  0  0  0  0
   -9.5902    1.4140    0.0000 C   0  0  0  0  0  0  0  0  0  0  0  0
   -9.8776    2.8862    0.0000 C   0  0  0  0  0  0  0  0  0  0  0  0
  -11.0089    1.9011    0.0000 C   0  0  0  0  0  0  0  0  0  0  0  0
    1.1700    2.1914    0.0000 O   0  0  0  0  0  0  0  0  0  0  0  0
    2.3980    3.0528    0.0000 C   0  0  0  0  0  0  0  0  0  0  0  0
    1.3364    4.1126    0.0000 N   0  0  0  0  0  0  0  0  0  0  0  0
    1.7234    5.5618    0.0000 C   0  0  0  0  0  0  0  0  0  0  0  0
    0.6619    6.6216    0.0000 C   0  0  0  0  0  0  0  0  0  0  0  0
    0.8930   -5.6296    0.0000 C   0  0  0  0  0  0  0  0  0  0  0  0
    2.1224   -6.4889    0.0000 C   0  0  0  0  0  0  0  0  0  0  0  0
   -0.4321   -4.9265    0.0000 C   0  0  0  0  0  0  0  0  0  0  0  0
    0.0336   -6.8590    0.0000 C   0  0  0  0  0  0  0  0  0  0  0  0
  1  2  1  0
  2  3  1  0
  3  4  2  0
  3 50  1  0
  4  5  1  0
  5  6  2  0
  6  7  1  0
  6 49  1  0
  7  8  2  0
  8  9  1  0
  8 47  1  0
  9 10  1  0
 10 11  1  0
 11 12  1  0
 12 13  1  0
 13 14  1  0
 14 15  1  0
 14 16  1  0
 15 16  1  0
 16 17  1  0
 17 18  1  0
 18 19  2  0
 18 20  1  0
 20 21  1  0
 21 22  1  0
 21 51  1  0
 22 23  2  0
 22 24  1  0
 24 25  1  0
 24 28  1  0
 25 26  1  0
 26 27  1  0
 26 46  1  0
 27 28  1  0
 28 29  1  0
 29 30  2  0
 29 31  1  0
 31 32  1  0
 32 33  1  0
 32 34  1  0
 32 37  1  0
 33 34  1  0
 34 35  1  0
 35 36  2  0
 37 38  2  0
 37 39  1  0
 39 40  1  0
 40 41  2  0
 40 42  2  0
 40 43  1  0
 43 44  1  0
 43 45  1  0
 44 45  1  0
 46 47  1  0
 47 48  2  0
 48 49  1  0
 49 50  2  0
 51 52  1  0
 51 53  1  0
 51 54  1  0
M  END
>  <s_m_entry_id>  (165) 
195

>  <s_m_entry_name>  (165) 
SIM_Broad_MProResults_ligprep.195

>  <Mol2_MolInfo_Name>  (165) 
3038

>  <Mol2_MolInfo_Type>  (165) 
SMALL

>  <Mol2_MolInfo_Charge>  (165) 
USER_CHARGES

>  <Mol2_Substructures>  (165) 
     1 ****        1 GROUP             0       ****    0 ROOT    

>  <Name>  (165) 
3038

>  <s_m_Source_Path>  (165) 
/home/jgilaber/drug_learning/drug_learning/datasets/SARS2

>  <s_m_Source_File>  (165) 
SIM_Broad_MProResults_ligprep.sd

>  <i_m_Source_File_Index>  (165) 
195

>  <s_m_subgroup_title>  (165) 
SIM_Broad_MProResults_ligprep

>  <s_m_subgroupid>  (165) 
SIM_Broad_MProResults_ligprep

>  <b_m_subgroup_collapsed>  (165) 
0

$$$$
11459
     RDKit          2D

 24 25  0  0  1  0  0  0  0  0999 V2000
   -2.6442   -6.3912    0.0000 C   0  0  0  0  0  0  0  0  0  0  0  0
   -1.9224   -5.0763    0.0000 N   0  0  0  0  0  0  0  0  0  0  0  0
   -0.4227   -5.0440    0.0000 C   0  0  0  0  0  0  0  0  0  0  0  0
   -2.7002   -3.7938    0.0000 C   0  0  0  0  0  0  0  0  0  0  0  0
   -1.9783   -2.4789    0.0000 C   0  0  0  0  0  0  0  0  0  0  0  0
   -2.7561   -1.1963    0.0000 C   0  0  0  0  0  0  0  0  0  0  0  0
   -2.0343    0.1186    0.0000 S   0  0  0  0  0  0  0  0  0  0  0  0
   -2.8121    1.4012    0.0000 C   0  0  0  0  0  0  0  0  0  0  0  0
   -4.3117    1.3689    0.0000 C   0  0  0  0  0  0  0  0  0  0  0  0
   -5.0895    2.6515    0.0000 C   0  0  0  0  0  0  0  0  0  0  0  0
   -4.3677    3.9664    0.0000 C   0  0  0  0  0  0  0  0  0  0  0  0
   -2.8680    3.9987    0.0000 C   0  0  0  0  0  0  0  0  0  0  0  0
   -2.0902    2.7161    0.0000 C   0  0  0  0  0  0  0  0  0  0  0  0
   -0.5906    2.7484    0.0000 N   0  0  0  0  0  0  0  0  0  0  0  0
    0.1872    1.4658    0.0000 C   0  0  0  0  0  0  0  0  0  0  0  0
   -0.5346    0.1509    0.0000 O   0  0  0  0  0  0  0  0  0  0  0  0
    1.6869    1.4981    0.0000 C   0  0  0  0  0  0  0  0  0  0  0  0
    2.4647    0.2155    0.0000 C   0  0  0  0  0  0  0  0  0  0  0  0
    3.9643    0.2478    0.0000 C   0  0  0  0  0  0  0  0  0  0  0  0
    4.7421   -1.0348    0.0000 C   0  0  0  0  0  0  0  0  0  0  0  0
    6.2418   -1.0025    0.0000 C   0  0  0  0  0  0  0  0  0  0  0  0
    6.9636    0.3124    0.0000 C   0  0  0  0  0  0  0  0  0  0  0  0
    6.1858    1.5950    0.0000 C   0  0  0  0  0  0  0  0  0  0  0  0
    4.6862    1.5627    0.0000 C   0  0  0  0  0  0  0  0  0  0  0  0
  1  2  1  0
  2  3  1  0
  2  4  1  0
  4  5  1  0
  5  6  1  0
  6  7  1  0
  7  8  1  0
  8  9  2  0
  8 13  1  0
  9 10  1  0
 10 11  2  0
 11 12  1  0
 12 13  2  0
 13 14  1  0
 14 15  1  0
 15 16  2  0
 15 17  1  0
 17 18  2  0
 18 19  1  0
 19 20  2  0
 19 24  1  0
 20 21  1  0
 21 22  2  0
 22 23  1  0
 23 24  2  0
M  CHG  1   2   1
M  END
>  <s_m_entry_id>  (166) 
666

>  <s_m_entry_name>  (166) 
3C-like_protease_GHDDI_ligprep.285

>  <s_m_Source_Path>  (166) 
/home/jgilaber/drug_learning/drug_learning/datasets/SAR1/GHDDI

>  <s_m_Source_File>  (166) 
3C-like_protease_GHDDI_ligprep.sdf

>  <i_m_Source_File_Index>  (166) 
285

>  <s_m_subgroup_title>  (166) 
3C-like_protease_GHDDI_ligprep

>  <s_m_subgroupid>  (166) 
3C-like_protease_GHDDI_ligprep

>  <b_m_subgroup_collapsed>  (166) 
0

$$$$
13706
     RDKit          2D

 33 34  0  0  1  0  0  0  0  0999 V2000
   -1.7822    5.5389    0.0000 C   0  0  0  0  0  0  0  0  0  0  0  0
   -1.2315    4.1437    0.0000 C   0  0  0  0  0  0  0  0  0  0  0  0
   -2.1644    2.9691    0.0000 C   0  0  0  0  0  0  0  0  0  0  0  0
    0.2522    3.9230    0.0000 C   0  0  0  0  0  0  0  0  0  0  0  0
    0.8029    2.5278    0.0000 C   0  0  0  0  0  0  0  0  0  0  0  0
    2.2866    2.3071    0.0000 N   0  0  0  0  0  0  0  0  0  0  0  0
    2.8373    0.9118    0.0000 C   0  0  0  0  0  0  0  0  0  0  0  0
    1.9044   -0.2627    0.0000 O   0  0  0  0  0  0  0  0  0  0  0  0
    4.3210    0.6911    0.0000 O   0  0  0  0  0  0  0  0  0  0  0  0
    4.8717   -0.7041    0.0000 C   0  0  0  0  0  0  0  0  0  0  0  0
    6.3554   -0.9248    0.0000 C   0  0  0  0  0  0  0  0  0  0  0  0
    6.9061   -2.3200    0.0000 C   0  0  0  0  0  0  0  0  0  0  0  0
    8.3898   -2.5407    0.0000 C   0  0  0  0  0  0  0  0  0  0  0  0
    9.3227   -1.3662    0.0000 C   0  0  0  0  0  0  0  0  0  0  0  0
    8.7720    0.0291    0.0000 C   0  0  0  0  0  0  0  0  0  0  0  0
    7.2883    0.2498    0.0000 C   0  0  0  0  0  0  0  0  0  0  0  0
   -0.1300    1.3532    0.0000 C   0  0  0  0  0  0  0  0  0  0  0  0
    0.4207   -0.0420    0.0000 O   0  0  0  0  0  0  0  0  0  0  0  0
   -1.6137    1.5739    0.0000 N   0  0  0  0  0  0  0  0  0  0  0  0
   -2.5467    0.3993    0.0000 C   0  0  0  0  0  0  0  0  0  0  0  0
   -4.0304    0.6200    0.0000 C   0  0  0  0  0  0  0  0  0  0  0  0
   -4.9633   -0.5545    0.0000 C   0  0  0  0  0  0  0  0  0  0  0  0
   -4.5615   -1.9997    0.0000 C   0  0  0  0  0  0  0  0  0  0  0  0
   -5.8117   -2.8285    0.0000 C   0  0  0  0  0  0  0  0  0  0  0  0
   -6.9863   -1.8955    0.0000 N   0  0  0  0  0  0  0  0  0  0  0  0
   -6.4619   -0.4902    0.0000 C   0  0  0  0  0  0  0  0  0  0  0  0
   -7.2907    0.7601    0.0000 O   0  0  0  0  0  0  0  0  0  0  0  0
   -1.9960   -0.9959    0.0000 C   0  0  0  0  0  0  0  0  0  0  0  0
   -0.5123   -1.2166    0.0000 O   0  0  0  0  0  0  0  0  0  0  0  0
   -2.9289   -2.1705    0.0000 S   0  0  0  0  0  0  0  0  0  0  0  0
   -1.7544   -3.1034    0.0000 O   0  0  0  0  0  0  0  0  0  0  0  0
   -4.1035   -1.2375    0.0000 O   0  0  0  0  0  0  0  0  0  0  0  0
   -3.8619   -3.3450    0.0000 O   0  0  0  0  0  0  0  0  0  0  0  0
  1  2  1  0
  2  3  1  0
  2  4  1  0
  4  5  1  0
  5  6  1  0
  5 17  1  0
  6  7  1  0
  7  8  2  0
  7  9  1  0
  9 10  1  0
 10 11  1  0
 11 12  2  0
 11 16  1  0
 12 13  1  0
 13 14  2  0
 14 15  1  0
 15 16  2  0
 17 18  2  0
 17 19  1  0
 19 20  1  0
 20 21  1  0
 20 28  1  0
 21 22  1  0
 22 23  1  0
 22 26  1  0
 23 24  1  0
 24 25  1  0
 25 26  1  0
 26 27  2  0
 28 29  1  0
 28 30  1  0
 30 31  2  0
 30 32  2  0
 30 33  1  0
M  CHG  1  33  -1
M  END
>  <s_m_entry_id>  (167) 
518

>  <s_m_entry_name>  (167) 
3C-like_protease_GHDDI_ligprep.137

>  <s_m_Source_Path>  (167) 
/home/jgilaber/drug_learning/drug_learning/datasets/SAR1/GHDDI

>  <s_m_Source_File>  (167) 
3C-like_protease_GHDDI_ligprep.sdf

>  <i_m_Source_File_Index>  (167) 
137

>  <s_m_subgroup_title>  (167) 
3C-like_protease_GHDDI_ligprep

>  <s_m_subgroupid>  (167) 
3C-like_protease_GHDDI_ligprep

>  <b_m_subgroup_collapsed>  (167) 
0

$$$$
391
     RDKit          2D

 22 24  0  0  1  0  0  0  0  0999 V2000
   -0.7448    2.8422    0.0000 O   0  0  0  0  0  0  0  0  0  0  0  0
    0.1083    1.6084    0.0000 C   0  0  0  0  0  0  0  0  0  0  0  0
   -0.5337    0.2527    0.0000 C   0  0  0  0  0  0  0  0  0  0  0  0
    0.3194   -0.9811    0.0000 O   0  0  0  0  0  0  0  0  0  0  0  0
    1.8145   -0.8592    0.0000 C   0  0  0  0  0  0  0  0  0  0  0  0
    2.6676   -2.0930    0.0000 C   0  0  0  0  0  0  0  0  0  0  0  0
    4.1626   -1.9711    0.0000 C   0  0  0  0  0  0  0  0  0  0  0  0
    5.0157   -3.2049    0.0000 O   0  0  0  0  0  0  0  0  0  0  0  0
    4.8045   -0.6154    0.0000 C   0  0  0  0  0  0  0  0  0  0  0  0
    3.9514    0.6184    0.0000 C   0  0  0  0  0  0  0  0  0  0  0  0
    4.5934    1.9741    0.0000 O   0  0  0  0  0  0  0  0  0  0  0  0
    2.4564    0.4965    0.0000 C   0  0  0  0  0  0  0  0  0  0  0  0
    1.6033    1.7303    0.0000 C   0  0  0  0  0  0  0  0  0  0  0  0
    2.2453    3.0860    0.0000 O   0  0  0  0  0  0  0  0  0  0  0  0
   -2.0287    0.1308    0.0000 C   0  0  0  0  0  0  0  0  0  0  0  0
   -2.8818    1.3646    0.0000 C   0  0  0  0  0  0  0  0  0  0  0  0
   -4.3768    1.2427    0.0000 C   0  0  0  0  0  0  0  0  0  0  0  0
   -5.0188   -0.1130    0.0000 C   0  0  0  0  0  0  0  0  0  0  0  0
   -6.5138   -0.2349    0.0000 O   0  0  0  0  0  0  0  0  0  0  0  0
   -4.1657   -1.3468    0.0000 C   0  0  0  0  0  0  0  0  0  0  0  0
   -4.8076   -2.7025    0.0000 O   0  0  0  0  0  0  0  0  0  0  0  0
   -2.6707   -1.2249    0.0000 C   0  0  0  0  0  0  0  0  0  0  0  0
  1  2  1  0
  2  3  2  0
  2 13  1  0
  3  4  1  0
  3 15  1  0
  4  5  1  0
  5  6  1  0
  5 12  2  0
  6  7  2  0
  7  8  1  0
  7  9  1  0
  9 10  2  0
 10 11  1  0
 10 12  1  0
 12 13  1  0
 13 14  2  0
 15 16  2  0
 15 22  1  0
 16 17  1  0
 17 18  2  0
 18 19  1  0
 18 20  1  0
 20 21  1  0
 20 22  2  0
M  END
>  <s_m_entry_id>  (168) 
935

>  <s_m_entry_name>  (168) 
3C-like_protease_GHDDI_ligprep.554

>  <s_m_Source_Path>  (168) 
/home/jgilaber/drug_learning/drug_learning/datasets/SAR1/GHDDI

>  <s_m_Source_File>  (168) 
3C-like_protease_GHDDI_ligprep.sdf

>  <i_m_Source_File_Index>  (168) 
554

>  <s_m_subgroup_title>  (168) 
3C-like_protease_GHDDI_ligprep

>  <s_m_subgroupid>  (168) 
3C-like_protease_GHDDI_ligprep

>  <b_m_subgroup_collapsed>  (168) 
0

$$$$
636
     RDKit          2D

 21 23  0  0  1  0  0  0  0  0999 V2000
   -5.3193   -2.7759    0.0000 O   0  0  0  0  0  0  0  0  0  0  0  0
   -4.3420   -1.6379    0.0000 C   0  0  0  0  0  0  0  0  0  0  0  0
   -4.8389   -0.2226    0.0000 C   0  0  0  0  0  0  0  0  0  0  0  0
   -3.8616    0.9154    0.0000 C   0  0  0  0  0  0  0  0  0  0  0  0
   -4.3585    2.3307    0.0000 O   0  0  0  0  0  0  0  0  0  0  0  0
   -2.3875    0.6380    0.0000 C   0  0  0  0  0  0  0  0  0  0  0  0
   -1.4102    1.7760    0.0000 C   0  0  0  0  0  0  0  0  0  0  0  0
   -1.9071    3.1913    0.0000 O   0  0  0  0  0  0  0  0  0  0  0  0
    0.0639    1.4986    0.0000 C   0  0  0  0  0  0  0  0  0  0  0  0
    0.5608    0.0833    0.0000 C   0  0  0  0  0  0  0  0  0  0  0  0
   -0.4165   -1.0546    0.0000 O   0  0  0  0  0  0  0  0  0  0  0  0
   -1.8906   -0.7773    0.0000 C   0  0  0  0  0  0  0  0  0  0  0  0
   -2.8679   -1.9152    0.0000 C   0  0  0  0  0  0  0  0  0  0  0  0
    2.0349   -0.1940    0.0000 C   0  0  0  0  0  0  0  0  0  0  0  0
    2.5318   -1.6093    0.0000 C   0  0  0  0  0  0  0  0  0  0  0  0
    4.0059   -1.8867    0.0000 C   0  0  0  0  0  0  0  0  0  0  0  0
    4.9832   -0.7487    0.0000 C   0  0  0  0  0  0  0  0  0  0  0  0
    6.4573   -1.0261    0.0000 O   0  0  0  0  0  0  0  0  0  0  0  0
    4.4863    0.6666    0.0000 C   0  0  0  0  0  0  0  0  0  0  0  0
    5.4636    1.8045    0.0000 O   0  0  0  0  0  0  0  0  0  0  0  0
    3.0122    0.9439    0.0000 C   0  0  0  0  0  0  0  0  0  0  0  0
  1  2  1  0
  2  3  2  0
  2 13  1  0
  3  4  1  0
  4  5  1  0
  4  6  2  0
  6  7  1  0
  6 12  1  0
  7  8  2  0
  7  9  1  0
  9 10  2  0
 10 11  1  0
 10 14  1  0
 11 12  1  0
 12 13  2  0
 14 15  2  0
 14 21  1  0
 15 16  1  0
 16 17  2  0
 17 18  1  0
 17 19  1  0
 19 20  1  0
 19 21  2  0
M  END
>  <s_m_entry_id>  (169) 
915

>  <s_m_entry_name>  (169) 
3C-like_protease_GHDDI_ligprep.534

>  <s_m_Source_Path>  (169) 
/home/jgilaber/drug_learning/drug_learning/datasets/SAR1/GHDDI

>  <s_m_Source_File>  (169) 
3C-like_protease_GHDDI_ligprep.sdf

>  <i_m_Source_File_Index>  (169) 
534

>  <s_m_subgroup_title>  (169) 
3C-like_protease_GHDDI_ligprep

>  <s_m_subgroupid>  (169) 
3C-like_protease_GHDDI_ligprep

>  <b_m_subgroup_collapsed>  (169) 
0

$$$$
707
     RDKit          2D

 33 36  0  0  1  0  0  0  0  0999 V2000
    6.3895   -0.5596    0.0000 O   0  0  0  0  0  0  0  0  0  0  0  0
    4.9008   -0.7434    0.0000 C   0  0  0  0  0  0  0  0  0  0  0  0
    3.9972    0.4539    0.0000 C   0  0  0  0  0  0  0  0  0  0  0  0
    2.5085    0.2701    0.0000 O   0  0  0  0  0  0  0  0  0  0  0  0
    1.6050    1.4674    0.0000 C   0  0  0  0  0  0  0  0  0  0  0  0
    0.1163    1.2836    0.0000 O   0  0  0  0  0  0  0  0  0  0  0  0
   -0.4689   -0.0976    0.0000 C   0  0  0  0  0  0  0  0  0  0  0  0
   -1.9575   -0.2814    0.0000 C   0  0  0  0  0  0  0  0  0  0  0  0
   -2.5427   -1.6626    0.0000 O   0  0  0  0  0  0  0  0  0  0  0  0
   -1.6391   -2.8599    0.0000 C   0  0  0  0  0  0  0  0  0  0  0  0
   -2.2243   -4.2410    0.0000 C   0  0  0  0  0  0  0  0  0  0  0  0
   -1.3207   -5.4384    0.0000 C   0  0  0  0  0  0  0  0  0  0  0  0
   -1.9059   -6.8195    0.0000 O   0  0  0  0  0  0  0  0  0  0  0  0
    0.1680   -5.2545    0.0000 C   0  0  0  0  0  0  0  0  0  0  0  0
    0.7531   -3.8734    0.0000 C   0  0  0  0  0  0  0  0  0  0  0  0
    2.2418   -3.6895    0.0000 O   0  0  0  0  0  0  0  0  0  0  0  0
   -0.1504   -2.6761    0.0000 C   0  0  0  0  0  0  0  0  0  0  0  0
    0.4347   -1.2949    0.0000 C   0  0  0  0  0  0  0  0  0  0  0  0
    1.9234   -1.1111    0.0000 O   0  0  0  0  0  0  0  0  0  0  0  0
   -2.8611    0.9159    0.0000 C   0  0  0  0  0  0  0  0  0  0  0  0
   -2.2759    2.2971    0.0000 C   0  0  0  0  0  0  0  0  0  0  0  0
   -3.1795    3.4944    0.0000 C   0  0  0  0  0  0  0  0  0  0  0  0
   -4.6682    3.3106    0.0000 C   0  0  0  0  0  0  0  0  0  0  0  0
   -5.5717    4.5079    0.0000 O   0  0  0  0  0  0  0  0  0  0  0  0
   -5.2533    1.9294    0.0000 C   0  0  0  0  0  0  0  0  0  0  0  0
   -6.7420    1.7456    0.0000 O   0  0  0  0  0  0  0  0  0  0  0  0
   -4.3498    0.7321    0.0000 C   0  0  0  0  0  0  0  0  0  0  0  0
    2.1901    2.8486    0.0000 C   0  0  0  0  0  0  0  0  0  0  0  0
    1.2866    4.0459    0.0000 O   0  0  0  0  0  0  0  0  0  0  0  0
    3.6788    3.0324    0.0000 C   0  0  0  0  0  0  0  0  0  0  0  0
    4.2640    4.4136    0.0000 O   0  0  0  0  0  0  0  0  0  0  0  0
    4.5824    1.8351    0.0000 C   0  0  0  0  0  0  0  0  0  0  0  0
    6.0711    2.0189    0.0000 O   0  0  0  0  0  0  0  0  0  0  0  0
  1  2  1  0
  2  3  1  0
  3  4  1  0
  3 32  1  0
  4  5  1  0
  5  6  1  0
  5 28  1  0
  6  7  1  0
  7  8  2  0
  7 18  1  0
  8  9  1  0
  8 20  1  0
  9 10  1  0
 10 11  2  0
 10 17  1  0
 11 12  1  0
 12 13  1  0
 12 14  2  0
 14 15  1  0
 15 16  1  0
 15 17  2  0
 17 18  1  0
 18 19  2  0
 20 21  2  0
 20 27  1  0
 21 22  1  0
 22 23  2  0
 23 24  1  0
 23 25  1  0
 25 26  1  0
 25 27  2  0
 28 29  1  0
 28 30  1  0
 30 31  1  0
 30 32  1  0
 32 33  1  0
M  END
>  <s_m_entry_id>  (170) 
1186

>  <s_m_entry_name>  (170) 
3C-like_protease_GHDDI_ligprep.805

>  <s_m_Source_Path>  (170) 
/home/jgilaber/drug_learning/drug_learning/datasets/SAR1/GHDDI

>  <s_m_Source_File>  (170) 
3C-like_protease_GHDDI_ligprep.sdf

>  <i_m_Source_File_Index>  (170) 
805

>  <s_m_subgroup_title>  (170) 
3C-like_protease_GHDDI_ligprep

>  <s_m_subgroupid>  (170) 
3C-like_protease_GHDDI_ligprep

>  <b_m_subgroup_collapsed>  (170) 
0

$$$$
906
     RDKit          2D

 22 25  0  0  1  0  0  0  0  0999 V2000
   -5.5865   -0.4564    0.0000 C   0  0  0  0  0  0  0  0  0  0  0  0
   -4.3671    0.4171    0.0000 C   0  0  0  0  0  0  0  0  0  0  0  0
   -4.3571    1.9171    0.0000 C   0  0  0  0  0  0  0  0  0  0  0  0
   -2.9274    2.3710    0.0000 O   0  0  0  0  0  0  0  0  0  0  0  0
   -2.0539    1.1516    0.0000 C   0  0  0  0  0  0  0  0  0  0  0  0
   -2.9437   -0.0560    0.0000 C   0  0  0  0  0  0  0  0  0  0  0  0
   -2.3428   -1.4304    0.0000 C   0  0  0  0  0  0  0  0  0  0  0  0
   -3.2326   -2.6380    0.0000 O   0  0  0  0  0  0  0  0  0  0  0  0
   -0.8521   -1.5972    0.0000 C   0  0  0  0  0  0  0  0  0  0  0  0
   -0.2512   -2.9716    0.0000 O   0  0  0  0  0  0  0  0  0  0  0  0
    0.0377   -0.3896    0.0000 C   0  0  0  0  0  0  0  0  0  0  0  0
    1.5284   -0.5564    0.0000 C   0  0  0  0  0  0  0  0  0  0  0  0
    2.1293   -1.9308    0.0000 C   0  0  0  0  0  0  0  0  0  0  0  0
    3.6200   -2.0976    0.0000 C   0  0  0  0  0  0  0  0  0  0  0  0
    4.5098   -0.8900    0.0000 C   0  0  0  0  0  0  0  0  0  0  0  0
    3.9089    0.4844    0.0000 C   0  0  0  0  0  0  0  0  0  0  0  0
    3.8143    1.9814    0.0000 C   0  0  0  0  0  0  0  0  0  0  0  0
    5.3668    0.8375    0.0000 C   0  0  0  0  0  0  0  0  0  0  0  0
    2.4182    0.6512    0.0000 C   0  0  0  0  0  0  0  0  0  0  0  0
    1.8173    2.0256    0.0000 C   0  0  0  0  0  0  0  0  0  0  0  0
    0.3266    2.1924    0.0000 C   0  0  0  0  0  0  0  0  0  0  0  0
   -0.5632    0.9848    0.0000 C   0  0  0  0  0  0  0  0  0  0  0  0
  1  2  1  0
  2  3  1  0
  2  6  1  0
  3  4  1  0
  4  5  1  0
  5  6  2  0
  5 22  1  0
  6  7  1  0
  7  8  2  0
  7  9  1  0
  9 10  2  0
  9 11  1  0
 11 12  2  0
 11 22  1  0
 12 13  1  0
 12 19  1  0
 13 14  1  0
 14 15  1  0
 15 16  1  0
 16 17  1  0
 16 18  1  0
 16 19  1  0
 19 20  2  0
 20 21  1  0
 21 22  2  0
M  END
>  <s_m_entry_id>  (171) 
1273

>  <s_m_entry_name>  (171) 
3C-like_protease_GHDDI_ligprep.892

>  <s_m_Source_Path>  (171) 
/home/jgilaber/drug_learning/drug_learning/datasets/SAR1/GHDDI

>  <s_m_Source_File>  (171) 
3C-like_protease_GHDDI_ligprep.sdf

>  <i_m_Source_File_Index>  (171) 
892

>  <s_m_subgroup_title>  (171) 
3C-like_protease_GHDDI_ligprep

>  <s_m_subgroupid>  (171) 
3C-like_protease_GHDDI_ligprep

>  <b_m_subgroup_collapsed>  (171) 
0

$$$$
1630
     RDKit          2D

 30 31  0  0  1  0  0  0  0  0999 V2000
   -2.6741   -3.3394    0.0000 C   0  0  0  0  0  0  0  0  0  0  0  0
   -3.5424   -2.1163    0.0000 C   0  0  0  0  0  0  0  0  0  0  0  0
   -2.9173   -0.7527    0.0000 C   0  0  0  0  0  0  0  0  0  0  0  0
   -1.4239   -0.6123    0.0000 C   0  0  0  0  0  0  0  0  0  0  0  0
   -0.7988    0.7512    0.0000 C   0  0  0  0  0  0  0  0  0  0  0  0
   -1.6672    1.9744    0.0000 C   0  0  0  0  0  0  0  0  0  0  0  0
   -3.1606    1.8339    0.0000 O   0  0  0  0  0  0  0  0  0  0  0  0
   -1.0421    3.3379    0.0000 C   0  0  0  0  0  0  0  0  0  0  0  0
    0.4513    3.4783    0.0000 C   0  0  0  0  0  0  0  0  0  0  0  0
    1.3197    2.2552    0.0000 C   0  0  0  0  0  0  0  0  0  0  0  0
    2.8131    2.3956    0.0000 C   0  0  0  0  0  0  0  0  0  0  0  0
    3.4382    3.7592    0.0000 O   0  0  0  0  0  0  0  0  0  0  0  0
    3.6814    1.1725    0.0000 C   0  0  0  0  0  0  0  0  0  0  0  0
    5.1748    1.3129    0.0000 C   0  0  0  0  0  0  0  0  0  0  0  0
    6.0431    0.0898    0.0000 C   0  0  0  0  0  0  0  0  0  0  0  0
    5.4180   -1.2737    0.0000 C   0  0  0  0  0  0  0  0  0  0  0  0
    6.2864   -2.4968    0.0000 C   0  0  0  0  0  0  0  0  0  0  0  0
    7.7798   -2.3564    0.0000 C   0  0  0  0  0  0  0  0  0  0  0  0
    8.6481   -3.5795    0.0000 O   0  0  0  0  0  0  0  0  0  0  0  0
    8.4049   -0.9929    0.0000 C   0  0  0  0  0  0  0  0  0  0  0  0
    7.5365    0.2303    0.0000 C   0  0  0  0  0  0  0  0  0  0  0  0
    0.6946    0.8917    0.0000 C   0  0  0  0  0  0  0  0  0  0  0  0
    1.5629   -0.3315    0.0000 O   0  0  0  0  0  0  0  0  0  0  0  0
   -5.0358   -2.2567    0.0000 C   0  0  0  0  0  0  0  0  0  0  0  0
   -5.9042   -1.0336    0.0000 C   0  0  0  0  0  0  0  0  0  0  0  0
   -7.3976   -1.1740    0.0000 C   0  0  0  0  0  0  0  0  0  0  0  0
   -8.0227   -2.5376    0.0000 O   0  0  0  0  0  0  0  0  0  0  0  0
   -8.2659    0.0491    0.0000 C   0  0  0  0  0  0  0  0  0  0  0  0
   -7.6408    1.4126    0.0000 C   0  0  0  0  0  0  0  0  0  0  0  0
   -9.7593   -0.0913    0.0000 C   0  0  0  0  0  0  0  0  0  0  0  0
  1  2  1  0
  2  3  2  0
  2 24  1  0
  3  4  1  0
  4  5  1  0
  5  6  2  0
  5 22  1  0
  6  7  1  0
  6  8  1  0
  8  9  2  0
  9 10  1  0
 10 11  1  0
 10 22  2  0
 11 12  2  0
 11 13  1  0
 13 14  2  0
 14 15  1  0
 15 16  2  0
 15 21  1  0
 16 17  1  0
 17 18  2  0
 18 19  1  0
 18 20  1  0
 20 21  2  0
 22 23  1  0
 24 25  1  0
 25 26  1  0
 26 27  1  0
 26 28  1  0
 28 29  2  0
 28 30  1  0
M  END
>  <s_m_entry_id>  (172) 
761

>  <s_m_entry_name>  (172) 
3C-like_protease_GHDDI_ligprep.380

>  <s_m_Source_Path>  (172) 
/home/jgilaber/drug_learning/drug_learning/datasets/SAR1/GHDDI

>  <s_m_Source_File>  (172) 
3C-like_protease_GHDDI_ligprep.sdf

>  <i_m_Source_File_Index>  (172) 
380

>  <s_m_subgroup_title>  (172) 
3C-like_protease_GHDDI_ligprep

>  <s_m_subgroupid>  (172) 
3C-like_protease_GHDDI_ligprep

>  <b_m_subgroup_collapsed>  (172) 
0

$$$$
1646
     RDKit          2D

 38 42  0  0  1  0  0  0  0  0999 V2000
   -8.4151   -2.0714    0.0000 C   0  0  0  0  0  0  0  0  0  0  0  0
   -7.4612   -3.2290    0.0000 C   0  0  0  0  0  0  0  0  0  0  0  0
   -6.5072   -4.3866    0.0000 C   0  0  0  0  0  0  0  0  0  0  0  0
   -8.6187   -4.1829    0.0000 C   0  0  0  0  0  0  0  0  0  0  0  0
   -6.3036   -2.2751    0.0000 C   0  0  0  0  0  0  0  0  0  0  0  0
   -6.5509   -0.7956    0.0000 C   0  0  0  0  0  0  0  0  0  0  0  0
   -5.3933    0.1583    0.0000 C   0  0  0  0  0  0  0  0  0  0  0  0
   -3.9884   -0.3672    0.0000 C   0  0  0  0  0  0  0  0  0  0  0  0
   -3.7410   -1.8467    0.0000 C   0  0  0  0  0  0  0  0  0  0  0  0
   -4.8986   -2.8006    0.0000 C   0  0  0  0  0  0  0  0  0  0  0  0
   -2.8308    0.5867    0.0000 N   0  0  0  0  0  0  0  0  0  0  0  0
   -2.9221    2.0839    0.0000 N   0  0  0  0  0  0  0  0  0  0  0  0
   -1.5264    2.6334    0.0000 C   0  0  0  0  0  0  0  0  0  0  0  0
   -0.5724    1.4759    0.0000 C   0  0  0  0  0  0  0  0  0  0  0  0
    0.9248    1.5672    0.0000 C   0  0  0  0  0  0  0  0  0  0  0  0
    1.7525    0.3162    0.0000 C   0  0  0  0  0  0  0  0  0  0  0  0
    3.2510    0.2505    0.0000 O   0  0  0  0  0  0  0  0  0  0  0  0
    3.6516   -1.1950    0.0000 C   0  0  0  0  0  0  0  0  0  0  0  0
    2.4007   -2.0227    0.0000 C   0  0  0  0  0  0  0  0  0  0  0  0
    1.2269   -1.0887    0.0000 C   0  0  0  0  0  0  0  0  0  0  0  0
    5.0566   -1.7205    0.0000 C   0  0  0  0  0  0  0  0  0  0  0  0
    5.3039   -3.2000    0.0000 C   0  0  0  0  0  0  0  0  0  0  0  0
    6.7088   -3.7256    0.0000 C   0  0  0  0  0  0  0  0  0  0  0  0
    6.9561   -5.2050    0.0000 Cl  0  0  0  0  0  0  0  0  0  0  0  0
    7.8664   -2.7716    0.0000 C   0  0  0  0  0  0  0  0  0  0  0  0
    7.6191   -1.2922    0.0000 C   0  0  0  0  0  0  0  0  0  0  0  0
    6.2142   -0.7666    0.0000 C   0  0  0  0  0  0  0  0  0  0  0  0
    5.9668    0.7129    0.0000 C   0  0  0  0  0  0  0  0  0  0  0  0
    4.5619    1.2384    0.0000 O   0  0  0  0  0  0  0  0  0  0  0  0
    7.1244    1.6668    0.0000 O   0  0  0  0  0  0  0  0  0  0  0  0
   -1.3786    0.2109    0.0000 C   0  0  0  0  0  0  0  0  0  0  0  0
   -0.8291   -1.1848    0.0000 O   0  0  0  0  0  0  0  0  0  0  0  0
   -1.1506    4.0856    0.0000 C   0  0  0  0  0  0  0  0  0  0  0  0
    0.2950    4.4862    0.0000 C   0  0  0  0  0  0  0  0  0  0  0  0
    0.6708    5.9384    0.0000 C   0  0  0  0  0  0  0  0  0  0  0  0
   -0.3989    6.9899    0.0000 C   0  0  0  0  0  0  0  0  0  0  0  0
   -1.8444    6.5893    0.0000 C   0  0  0  0  0  0  0  0  0  0  0  0
   -2.2203    5.1371    0.0000 C   0  0  0  0  0  0  0  0  0  0  0  0
  1  2  1  0
  2  3  1  0
  2  4  1  0
  2  5  1  0
  5  6  2  0
  5 10  1  0
  6  7  1  0
  7  8  2  0
  8  9  1  0
  8 11  1  0
  9 10  2  0
 11 12  1  0
 11 31  1  0
 12 13  2  0
 13 14  1  0
 13 33  1  0
 14 15  2  0
 14 31  1  0
 15 16  1  0
 16 17  1  0
 16 20  2  0
 17 18  1  0
 18 19  2  0
 18 21  1  0
 19 20  1  0
 21 22  2  0
 21 27  1  0
 22 23  1  0
 23 24  1  0
 23 25  2  0
 25 26  1  0
 26 27  2  0
 27 28  1  0
 28 29  2  0
 28 30  1  0
 31 32  2  0
 33 34  2  0
 33 38  1  0
 34 35  1  0
 35 36  2  0
 36 37  1  0
 37 38  2  0
M  CHG  1  30  -1
M  END
>  <s_m_entry_id>  (173) 
680

>  <s_m_entry_name>  (173) 
3C-like_protease_GHDDI_ligprep.299

>  <s_m_Source_Path>  (173) 
/home/jgilaber/drug_learning/drug_learning/datasets/SAR1/GHDDI

>  <s_m_Source_File>  (173) 
3C-like_protease_GHDDI_ligprep.sdf

>  <i_m_Source_File_Index>  (173) 
299

>  <s_m_subgroup_title>  (173) 
3C-like_protease_GHDDI_ligprep

>  <s_m_subgroupid>  (173) 
3C-like_protease_GHDDI_ligprep

>  <b_m_subgroup_collapsed>  (173) 
0

$$$$
1659
     RDKit          2D

 30 33  0  0  1  0  0  0  0  0999 V2000
    5.9545   -4.9766    0.0000 F   0  0  0  0  0  0  0  0  0  0  0  0
    4.7733   -4.0521    0.0000 C   0  0  0  0  0  0  0  0  0  0  0  0
    3.3820   -4.6127    0.0000 C   0  0  0  0  0  0  0  0  0  0  0  0
    2.2008   -3.6882    0.0000 C   0  0  0  0  0  0  0  0  0  0  0  0
    2.4109   -2.2030    0.0000 C   0  0  0  0  0  0  0  0  0  0  0  0
    3.8022   -1.6423    0.0000 C   0  0  0  0  0  0  0  0  0  0  0  0
    4.9834   -2.5668    0.0000 C   0  0  0  0  0  0  0  0  0  0  0  0
    1.2297   -1.2785    0.0000 C   0  0  0  0  0  0  0  0  0  0  0  0
   -0.1616   -1.8392    0.0000 O   0  0  0  0  0  0  0  0  0  0  0  0
    1.4397    0.2067    0.0000 N   0  0  0  0  0  0  0  0  0  0  0  0
    2.8310    0.7674    0.0000 C   0  0  0  0  0  0  0  0  0  0  0  0
    3.0411    2.2527    0.0000 C   0  0  0  0  0  0  0  0  0  0  0  0
    4.4323    2.8133    0.0000 C   0  0  0  0  0  0  0  0  0  0  0  0
    4.6424    4.2986    0.0000 C   0  0  0  0  0  0  0  0  0  0  0  0
    3.4612    5.2231    0.0000 C   0  0  0  0  0  0  0  0  0  0  0  0
    2.0699    4.6624    0.0000 C   0  0  0  0  0  0  0  0  0  0  0  0
    1.8599    3.1772    0.0000 C   0  0  0  0  0  0  0  0  0  0  0  0
    0.4686    2.6165    0.0000 C   0  0  0  0  0  0  0  0  0  0  0  0
    0.2585    1.1313    0.0000 C   0  0  0  0  0  0  0  0  0  0  0  0
   -1.1327    0.5706    0.0000 C   0  0  0  0  0  0  0  0  0  0  0  0
   -2.3139    1.4951    0.0000 N   0  0  0  0  0  0  0  0  0  0  0  0
   -3.7052    0.9344    0.0000 C   0  0  0  0  0  0  0  0  0  0  0  0
   -3.9153   -0.5508    0.0000 C   0  0  0  0  0  0  0  0  0  0  0  0
   -5.3065   -1.1115    0.0000 C   0  0  0  0  0  0  0  0  0  0  0  0
   -5.6707   -2.5666    0.0000 C   0  0  0  0  0  0  0  0  0  0  0  0
   -7.1671   -2.6699    0.0000 N   0  0  0  0  0  0  0  0  0  0  0  0
   -7.7278   -1.2787    0.0000 C   0  0  0  0  0  0  0  0  0  0  0  0
   -6.5779   -0.3155    0.0000 N   0  0  0  0  0  0  0  0  0  0  0  0
   -4.8864    1.8589    0.0000 C   0  0  0  0  0  0  0  0  0  0  0  0
   -4.6763    3.3442    0.0000 O   0  0  0  0  0  0  0  0  0  0  0  0
  1  2  1  0
  2  3  2  0
  2  7  1  0
  3  4  1  0
  4  5  2  0
  5  6  1  0
  5  8  1  0
  6  7  2  0
  8  9  2  0
  8 10  1  0
 10 11  1  0
 10 19  1  0
 11 12  1  0
 12 13  1  0
 12 17  1  0
 13 14  1  0
 14 15  1  0
 15 16  1  0
 16 17  1  0
 17 18  1  0
 18 19  1  0
 19 20  1  0
 20 21  1  0
 21 22  1  0
 22 23  1  0
 22 29  2  0
 23 24  1  0
 24 25  2  0
 24 28  1  0
 25 26  1  0
 26 27  1  0
 27 28  2  0
 29 30  1  0
M  CHG  2  21   1  30  -1
M  END
>  <s_m_entry_id>  (174) 
1068

>  <s_m_entry_name>  (174) 
3C-like_protease_GHDDI_ligprep.687

>  <s_m_Source_Path>  (174) 
/home/jgilaber/drug_learning/drug_learning/datasets/SAR1/GHDDI

>  <s_m_Source_File>  (174) 
3C-like_protease_GHDDI_ligprep.sdf

>  <i_m_Source_File_Index>  (174) 
687

>  <s_m_subgroup_title>  (174) 
3C-like_protease_GHDDI_ligprep

>  <s_m_subgroupid>  (174) 
3C-like_protease_GHDDI_ligprep

>  <b_m_subgroup_collapsed>  (174) 
0

$$$$
1660
     RDKit          2D

 29 32  0  0  1  0  0  0  0  0999 V2000
   -2.3344   -3.4345    0.0000 O   0  0  0  0  0  0  0  0  0  0  0  0
   -3.3240   -2.3072    0.0000 C   0  0  0  0  0  0  0  0  0  0  0  0
   -2.8425   -0.8866    0.0000 C   0  0  0  0  0  0  0  0  0  0  0  0
   -3.8321    0.2407    0.0000 C   0  0  0  0  0  0  0  0  0  0  0  0
   -5.3031   -0.0527    0.0000 C   0  0  0  0  0  0  0  0  0  0  0  0
   -5.9305   -1.4152    0.0000 C   0  0  0  0  0  0  0  0  0  0  0  0
   -7.4201   -1.2397    0.0000 N   0  0  0  0  0  0  0  0  0  0  0  0
   -7.7135    0.2314    0.0000 C   0  0  0  0  0  0  0  0  0  0  0  0
   -6.4051    0.9649    0.0000 N   0  0  0  0  0  0  0  0  0  0  0  0
   -1.3715   -0.5933    0.0000 N   0  0  0  0  0  0  0  0  0  0  0  0
   -0.3819   -1.7205    0.0000 C   0  0  0  0  0  0  0  0  0  0  0  0
    1.0891   -1.4272    0.0000 C   0  0  0  0  0  0  0  0  0  0  0  0
    2.0787   -2.5544    0.0000 C   0  0  0  0  0  0  0  0  0  0  0  0
    3.5497   -2.2611    0.0000 C   0  0  0  0  0  0  0  0  0  0  0  0
    4.5393   -3.3883    0.0000 C   0  0  0  0  0  0  0  0  0  0  0  0
    6.0103   -3.0950    0.0000 C   0  0  0  0  0  0  0  0  0  0  0  0
    6.4918   -1.6743    0.0000 C   0  0  0  0  0  0  0  0  0  0  0  0
    5.5022   -0.5471    0.0000 C   0  0  0  0  0  0  0  0  0  0  0  0
    4.0312   -0.8404    0.0000 C   0  0  0  0  0  0  0  0  0  0  0  0
    3.0416    0.2868    0.0000 C   0  0  0  0  0  0  0  0  0  0  0  0
    1.5706   -0.0065    0.0000 N   0  0  0  0  0  0  0  0  0  0  0  0
    0.5810    1.1207    0.0000 C   0  0  0  0  0  0  0  0  0  0  0  0
   -0.8900    0.8274    0.0000 O   0  0  0  0  0  0  0  0  0  0  0  0
    1.0624    2.5414    0.0000 C   0  0  0  0  0  0  0  0  0  0  0  0
    2.5335    2.8347    0.0000 C   0  0  0  0  0  0  0  0  0  0  0  0
    3.0149    4.2554    0.0000 C   0  0  0  0  0  0  0  0  0  0  0  0
    2.0254    5.3827    0.0000 C   0  0  0  0  0  0  0  0  0  0  0  0
    0.5543    5.0893    0.0000 C   0  0  0  0  0  0  0  0  0  0  0  0
    0.0729    3.6687    0.0000 C   0  0  0  0  0  0  0  0  0  0  0  0
  1  2  1  0
  2  3  2  0
  3  4  1  0
  3 10  1  0
  4  5  1  0
  5  6  2  0
  5  9  1  0
  6  7  1  0
  7  8  1  0
  8  9  2  0
 10 11  1  0
 11 12  1  0
 12 13  1  0
 12 21  1  0
 13 14  1  0
 14 15  1  0
 14 19  1  0
 15 16  1  0
 16 17  1  0
 17 18  1  0
 18 19  1  0
 19 20  1  0
 20 21  1  0
 21 22  1  0
 22 23  2  0
 22 24  1  0
 24 25  2  0
 24 29  1  0
 25 26  1  0
 26 27  2  0
 27 28  1  0
 28 29  2  0
M  CHG  2   1  -1  10   1
M  END
>  <s_m_entry_id>  (175) 
1101

>  <s_m_entry_name>  (175) 
3C-like_protease_GHDDI_ligprep.720

>  <s_m_Source_Path>  (175) 
/home/jgilaber/drug_learning/drug_learning/datasets/SAR1/GHDDI

>  <s_m_Source_File>  (175) 
3C-like_protease_GHDDI_ligprep.sdf

>  <i_m_Source_File_Index>  (175) 
720

>  <s_m_subgroup_title>  (175) 
3C-like_protease_GHDDI_ligprep

>  <s_m_subgroupid>  (175) 
3C-like_protease_GHDDI_ligprep

>  <b_m_subgroup_collapsed>  (175) 
0

$$$$
1661
     RDKit          2D

 30 33  0  0  1  0  0  0  0  0999 V2000
    5.9545   -4.9766    0.0000 Br  0  0  0  0  0  0  0  0  0  0  0  0
    4.7733   -4.0521    0.0000 C   0  0  0  0  0  0  0  0  0  0  0  0
    3.3820   -4.6127    0.0000 C   0  0  0  0  0  0  0  0  0  0  0  0
    2.2008   -3.6882    0.0000 C   0  0  0  0  0  0  0  0  0  0  0  0
    2.4109   -2.2030    0.0000 C   0  0  0  0  0  0  0  0  0  0  0  0
    3.8022   -1.6423    0.0000 C   0  0  0  0  0  0  0  0  0  0  0  0
    4.9834   -2.5668    0.0000 C   0  0  0  0  0  0  0  0  0  0  0  0
    1.2297   -1.2785    0.0000 C   0  0  0  0  0  0  0  0  0  0  0  0
   -0.1616   -1.8392    0.0000 O   0  0  0  0  0  0  0  0  0  0  0  0
    1.4397    0.2067    0.0000 N   0  0  0  0  0  0  0  0  0  0  0  0
    2.8310    0.7674    0.0000 C   0  0  0  0  0  0  0  0  0  0  0  0
    3.0411    2.2527    0.0000 C   0  0  0  0  0  0  0  0  0  0  0  0
    4.4323    2.8133    0.0000 C   0  0  0  0  0  0  0  0  0  0  0  0
    4.6424    4.2986    0.0000 C   0  0  0  0  0  0  0  0  0  0  0  0
    3.4612    5.2231    0.0000 C   0  0  0  0  0  0  0  0  0  0  0  0
    2.0699    4.6624    0.0000 C   0  0  0  0  0  0  0  0  0  0  0  0
    1.8599    3.1772    0.0000 C   0  0  0  0  0  0  0  0  0  0  0  0
    0.4686    2.6165    0.0000 C   0  0  0  0  0  0  0  0  0  0  0  0
    0.2585    1.1313    0.0000 C   0  0  0  0  0  0  0  0  0  0  0  0
   -1.1327    0.5706    0.0000 C   0  0  0  0  0  0  0  0  0  0  0  0
   -2.3139    1.4951    0.0000 N   0  0  0  0  0  0  0  0  0  0  0  0
   -3.7052    0.9344    0.0000 C   0  0  0  0  0  0  0  0  0  0  0  0
   -3.9153   -0.5508    0.0000 C   0  0  0  0  0  0  0  0  0  0  0  0
   -5.3065   -1.1115    0.0000 C   0  0  0  0  0  0  0  0  0  0  0  0
   -5.6707   -2.5666    0.0000 C   0  0  0  0  0  0  0  0  0  0  0  0
   -7.1671   -2.6699    0.0000 N   0  0  0  0  0  0  0  0  0  0  0  0
   -7.7278   -1.2787    0.0000 C   0  0  0  0  0  0  0  0  0  0  0  0
   -6.5779   -0.3155    0.0000 N   0  0  0  0  0  0  0  0  0  0  0  0
   -4.8864    1.8589    0.0000 C   0  0  0  0  0  0  0  0  0  0  0  0
   -4.6763    3.3442    0.0000 O   0  0  0  0  0  0  0  0  0  0  0  0
  1  2  1  0
  2  3  2  0
  2  7  1  0
  3  4  1  0
  4  5  2  0
  5  6  1  0
  5  8  1  0
  6  7  2  0
  8  9  2  0
  8 10  1  0
 10 11  1  0
 10 19  1  0
 11 12  1  0
 12 13  1  0
 12 17  1  0
 13 14  1  0
 14 15  1  0
 15 16  1  0
 16 17  1  0
 17 18  1  0
 18 19  1  0
 19 20  1  0
 20 21  1  0
 21 22  1  0
 22 23  1  0
 22 29  2  0
 23 24  1  0
 24 25  2  0
 24 28  1  0
 25 26  1  0
 26 27  1  0
 27 28  2  0
 29 30  1  0
M  CHG  2  21   1  30  -1
M  END
>  <s_m_entry_id>  (176) 
1088

>  <s_m_entry_name>  (176) 
3C-like_protease_GHDDI_ligprep.707

>  <s_m_Source_Path>  (176) 
/home/jgilaber/drug_learning/drug_learning/datasets/SAR1/GHDDI

>  <s_m_Source_File>  (176) 
3C-like_protease_GHDDI_ligprep.sdf

>  <i_m_Source_File_Index>  (176) 
707

>  <s_m_subgroup_title>  (176) 
3C-like_protease_GHDDI_ligprep

>  <s_m_subgroupid>  (176) 
3C-like_protease_GHDDI_ligprep

>  <b_m_subgroup_collapsed>  (176) 
0

$$$$
1668
     RDKit          2D

 22 24  0  0  1  0  0  0  0  0999 V2000
   -7.3481    0.5542    0.0000 C   0  0  0  0  0  0  0  0  0  0  0  0
   -5.8625    0.3468    0.0000 C   0  0  0  0  0  0  0  0  0  0  0  0
   -4.9401    1.5297    0.0000 C   0  0  0  0  0  0  0  0  0  0  0  0
   -3.4545    1.3224    0.0000 C   0  0  0  0  0  0  0  0  0  0  0  0
   -2.8913   -0.0679    0.0000 N   0  0  0  0  0  0  0  0  0  0  0  0
   -3.8137   -1.2508    0.0000 C   0  0  0  0  0  0  0  0  0  0  0  0
   -5.2993   -1.0434    0.0000 C   0  0  0  0  0  0  0  0  0  0  0  0
   -1.4057   -0.2752    0.0000 S   0  0  0  0  0  0  0  0  0  0  0  0
   -1.1984    1.2104    0.0000 O   0  0  0  0  0  0  0  0  0  0  0  0
   -1.6131   -1.7608    0.0000 O   0  0  0  0  0  0  0  0  0  0  0  0
    0.0799   -0.4826    0.0000 C   0  0  0  0  0  0  0  0  0  0  0  0
    0.6431   -1.8728    0.0000 C   0  0  0  0  0  0  0  0  0  0  0  0
    2.1287   -2.0802    0.0000 C   0  0  0  0  0  0  0  0  0  0  0  0
    3.0511   -0.8973    0.0000 C   0  0  0  0  0  0  0  0  0  0  0  0
    4.5473   -0.7912    0.0000 N   0  0  0  0  0  0  0  0  0  0  0  0
    5.5126   -1.9394    0.0000 C   0  0  0  0  0  0  0  0  0  0  0  0
    4.9088    0.6646    0.0000 C   0  0  0  0  0  0  0  0  0  0  0  0
    6.2991    1.2278    0.0000 O   0  0  0  0  0  0  0  0  0  0  0  0
    3.6360    1.4582    0.0000 C   0  0  0  0  0  0  0  0  0  0  0  0
    3.5300    2.9545    0.0000 O   0  0  0  0  0  0  0  0  0  0  0  0
    2.4879    0.4930    0.0000 C   0  0  0  0  0  0  0  0  0  0  0  0
    1.0023    0.7003    0.0000 C   0  0  0  0  0  0  0  0  0  0  0  0
  1  2  1  0
  2  3  1  0
  2  7  1  0
  3  4  1  0
  4  5  1  0
  5  6  1  0
  5  8  1  0
  6  7  1  0
  8  9  2  0
  8 10  2  0
  8 11  1  0
 11 12  2  0
 11 22  1  0
 12 13  1  0
 13 14  2  0
 14 15  1  0
 14 21  1  0
 15 16  1  0
 15 17  1  0
 17 18  2  0
 17 19  1  0
 19 20  2  0
 19 21  1  0
 21 22  2  0
M  END
>  <s_m_entry_id>  (177) 
529

>  <s_m_entry_name>  (177) 
3C-like_protease_GHDDI_ligprep.148

>  <s_m_Source_Path>  (177) 
/home/jgilaber/drug_learning/drug_learning/datasets/SAR1/GHDDI

>  <s_m_Source_File>  (177) 
3C-like_protease_GHDDI_ligprep.sdf

>  <i_m_Source_File_Index>  (177) 
148

>  <s_m_subgroup_title>  (177) 
3C-like_protease_GHDDI_ligprep

>  <s_m_subgroupid>  (177) 
3C-like_protease_GHDDI_ligprep

>  <b_m_subgroup_collapsed>  (177) 
0

$$$$
1671
     RDKit          2D

 50 53  0  0  1  0  0  0  0  0999 V2000
    2.5427    4.9998    0.0000 C   0  0  0  0  0  0  0  0  0  0  0  0
    2.3182    3.5167    0.0000 C   0  0  0  0  0  0  0  0  0  0  0  0
    3.4904    2.5808    0.0000 C   0  0  0  0  0  0  0  0  0  0  0  0
    0.9216    2.9696    0.0000 C   0  0  0  0  0  0  0  0  0  0  0  0
    0.6971    1.4865    0.0000 C   0  0  0  0  0  0  0  0  0  0  0  0
   -0.6995    0.9393    0.0000 N   0  0  0  0  0  0  0  0  0  0  0  0
   -0.9240   -0.5438    0.0000 C   0  0  0  0  0  0  0  0  0  0  0  0
    0.2482   -1.4798    0.0000 O   0  0  0  0  0  0  0  0  0  0  0  0
   -2.3206   -1.0910    0.0000 C   0  0  0  0  0  0  0  0  0  0  0  0
   -2.5451   -2.5741    0.0000 C   0  0  0  0  0  0  0  0  0  0  0  0
   -3.9418   -3.1213    0.0000 C   0  0  0  0  0  0  0  0  0  0  0  0
   -5.1139   -2.1853    0.0000 C   0  0  0  0  0  0  0  0  0  0  0  0
   -6.5106   -2.7325    0.0000 C   0  0  0  0  0  0  0  0  0  0  0  0
   -6.7350   -4.2156    0.0000 C   0  0  0  0  0  0  0  0  0  0  0  0
   -5.5629   -5.1515    0.0000 C   0  0  0  0  0  0  0  0  0  0  0  0
   -5.7873   -6.6346    0.0000 C   0  0  0  0  0  0  0  0  0  0  0  0
   -4.6151   -7.5706    0.0000 C   0  0  0  0  0  0  0  0  0  0  0  0
   -3.2185   -7.0234    0.0000 C   0  0  0  0  0  0  0  0  0  0  0  0
   -2.9940   -5.5403    0.0000 C   0  0  0  0  0  0  0  0  0  0  0  0
   -4.1662   -4.6044    0.0000 C   0  0  0  0  0  0  0  0  0  0  0  0
   -3.4928   -0.1550    0.0000 N   0  0  0  0  0  0  0  0  0  0  0  0
   -3.2684    1.3281    0.0000 C   0  0  0  0  0  0  0  0  0  0  0  0
   -1.8717    1.8752    0.0000 O   0  0  0  0  0  0  0  0  0  0  0  0
   -4.4405    2.2640    0.0000 O   0  0  0  0  0  0  0  0  0  0  0  0
   -4.2161    3.7471    0.0000 C   0  0  0  0  0  0  0  0  0  0  0  0
   -5.3883    4.6831    0.0000 C   0  0  0  0  0  0  0  0  0  0  0  0
   -5.1638    6.1662    0.0000 C   0  0  0  0  0  0  0  0  0  0  0  0
   -6.3360    7.1021    0.0000 C   0  0  0  0  0  0  0  0  0  0  0  0
   -7.7326    6.5550    0.0000 C   0  0  0  0  0  0  0  0  0  0  0  0
   -7.9571    5.0719    0.0000 C   0  0  0  0  0  0  0  0  0  0  0  0
   -6.7849    4.1359    0.0000 C   0  0  0  0  0  0  0  0  0  0  0  0
    1.8693    0.5505    0.0000 C   0  0  0  0  0  0  0  0  0  0  0  0
    1.6448   -0.9326    0.0000 O   0  0  0  0  0  0  0  0  0  0  0  0
    3.2659    1.0977    0.0000 N   0  0  0  0  0  0  0  0  0  0  0  0
    4.4381    0.1617    0.0000 C   0  0  0  0  0  0  0  0  0  0  0  0
    5.8347    0.7089    0.0000 C   0  0  0  0  0  0  0  0  0  0  0  0
    6.0592    2.1920    0.0000 C   0  0  0  0  0  0  0  0  0  0  0  0
    4.9913    3.2454    0.0000 C   0  0  0  0  0  0  0  0  0  0  0  0
    5.6631    4.5865    0.0000 C   0  0  0  0  0  0  0  0  0  0  0  0
    7.1462    4.3620    0.0000 N   0  0  0  0  0  0  0  0  0  0  0  0
    7.3910    2.8822    0.0000 C   0  0  0  0  0  0  0  0  0  0  0  0
    8.7322    2.2104    0.0000 O   0  0  0  0  0  0  0  0  0  0  0  0
    4.2136   -1.3214    0.0000 C   0  0  0  0  0  0  0  0  0  0  0  0
    2.8170   -1.8685    0.0000 O   0  0  0  0  0  0  0  0  0  0  0  0
    5.3858   -2.2573    0.0000 C   0  0  0  0  0  0  0  0  0  0  0  0
    6.7825   -1.7102    0.0000 O   0  0  0  0  0  0  0  0  0  0  0  0
    5.1614   -3.7404    0.0000 N   0  0  0  0  0  0  0  0  0  0  0  0
    6.3335   -4.6764    0.0000 C   0  0  0  0  0  0  0  0  0  0  0  0
    6.1091   -6.1595    0.0000 C   0  0  0  0  0  0  0  0  0  0  0  0
    7.7302   -4.1292    0.0000 C   0  0  0  0  0  0  0  0  0  0  0  0
  1  2  1  0
  2  3  1  0
  2  4  1  0
  4  5  1  0
  5  6  1  0
  5 32  1  0
  6  7  1  0
  7  8  2  0
  7  9  1  0
  9 10  1  0
  9 21  1  0
 10 11  1  0
 11 12  2  0
 11 20  1  0
 12 13  1  0
 13 14  2  0
 14 15  1  0
 15 16  1  0
 15 20  2  0
 16 17  2  0
 17 18  1  0
 18 19  2  0
 19 20  1  0
 21 22  1  0
 22 23  2  0
 22 24  1  0
 24 25  1  0
 25 26  1  0
 26 27  2  0
 26 31  1  0
 27 28  1  0
 28 29  2  0
 29 30  1  0
 30 31  2  0
 32 33  2  0
 32 34  1  0
 34 35  1  0
 35 36  1  0
 35 43  1  0
 36 37  1  0
 37 38  1  0
 37 41  1  0
 38 39  1  0
 39 40  1  0
 40 41  1  0
 41 42  2  0
 43 44  2  0
 43 45  1  0
 45 46  2  0
 45 47  1  0
 47 48  1  0
 48 49  1  0
 48 50  1  0
M  END
>  <s_m_entry_id>  (178) 
499

>  <s_m_entry_name>  (178) 
3C-like_protease_GHDDI_ligprep.118

>  <s_m_Source_Path>  (178) 
/home/jgilaber/drug_learning/drug_learning/datasets/SAR1/GHDDI

>  <s_m_Source_File>  (178) 
3C-like_protease_GHDDI_ligprep.sdf

>  <i_m_Source_File_Index>  (178) 
118

>  <s_m_subgroup_title>  (178) 
3C-like_protease_GHDDI_ligprep

>  <s_m_subgroupid>  (178) 
3C-like_protease_GHDDI_ligprep

>  <b_m_subgroup_collapsed>  (178) 
0

$$$$
1672
     RDKit          2D

 44 47  0  0  1  0  0  0  0  0999 V2000
    2.7831    5.3795    0.0000 C   0  0  0  0  0  0  0  0  0  0  0  0
    2.6957    3.8821    0.0000 C   0  0  0  0  0  0  0  0  0  0  0  0
    3.9488    3.0576    0.0000 C   0  0  0  0  0  0  0  0  0  0  0  0
    1.3551    3.2091    0.0000 C   0  0  0  0  0  0  0  0  0  0  0  0
    1.2677    1.7116    0.0000 C   0  0  0  0  0  0  0  0  0  0  0  0
   -0.0729    1.0386    0.0000 N   0  0  0  0  0  0  0  0  0  0  0  0
   -0.1603   -0.4588    0.0000 C   0  0  0  0  0  0  0  0  0  0  0  0
    1.0928   -1.2833    0.0000 O   0  0  0  0  0  0  0  0  0  0  0  0
   -1.5009   -1.1318    0.0000 C   0  0  0  0  0  0  0  0  0  0  0  0
   -1.5884   -2.6292    0.0000 C   0  0  0  0  0  0  0  0  0  0  0  0
   -2.9289   -3.3022    0.0000 C   0  0  0  0  0  0  0  0  0  0  0  0
   -4.1820   -2.4778    0.0000 C   0  0  0  0  0  0  0  0  0  0  0  0
   -5.5226   -3.1507    0.0000 C   0  0  0  0  0  0  0  0  0  0  0  0
   -5.6100   -4.6482    0.0000 C   0  0  0  0  0  0  0  0  0  0  0  0
   -4.3569   -5.4727    0.0000 C   0  0  0  0  0  0  0  0  0  0  0  0
   -4.4444   -6.9701    0.0000 C   0  0  0  0  0  0  0  0  0  0  0  0
   -3.1913   -7.7946    0.0000 C   0  0  0  0  0  0  0  0  0  0  0  0
   -1.8507   -7.1216    0.0000 C   0  0  0  0  0  0  0  0  0  0  0  0
   -1.7633   -5.6241    0.0000 C   0  0  0  0  0  0  0  0  0  0  0  0
   -3.0164   -4.7997    0.0000 C   0  0  0  0  0  0  0  0  0  0  0  0
   -2.7540   -0.3073    0.0000 N   0  0  0  0  0  0  0  0  0  0  0  0
   -2.6665    1.1901    0.0000 C   0  0  0  0  0  0  0  0  0  0  0  0
   -1.3260    1.8631    0.0000 O   0  0  0  0  0  0  0  0  0  0  0  0
   -3.9196    2.0146    0.0000 O   0  0  0  0  0  0  0  0  0  0  0  0
   -3.8322    3.5120    0.0000 C   0  0  0  0  0  0  0  0  0  0  0  0
   -5.0853    4.3365    0.0000 C   0  0  0  0  0  0  0  0  0  0  0  0
   -4.9978    5.8339    0.0000 C   0  0  0  0  0  0  0  0  0  0  0  0
   -6.2509    6.6584    0.0000 C   0  0  0  0  0  0  0  0  0  0  0  0
   -7.5915    5.9854    0.0000 C   0  0  0  0  0  0  0  0  0  0  0  0
   -7.6789    4.4880    0.0000 C   0  0  0  0  0  0  0  0  0  0  0  0
   -6.4258    3.6635    0.0000 C   0  0  0  0  0  0  0  0  0  0  0  0
    2.5208    0.8872    0.0000 C   0  0  0  0  0  0  0  0  0  0  0  0
    2.4333   -0.6103    0.0000 O   0  0  0  0  0  0  0  0  0  0  0  0
    3.8613    1.5601    0.0000 N   0  0  0  0  0  0  0  0  0  0  0  0
    5.1144    0.7357    0.0000 C   0  0  0  0  0  0  0  0  0  0  0  0
    6.4550    1.4087    0.0000 C   0  0  0  0  0  0  0  0  0  0  0  0
    7.7081    0.5842    0.0000 C   0  0  0  0  0  0  0  0  0  0  0  0
    9.1116    1.1134    0.0000 C   0  0  0  0  0  0  0  0  0  0  0  0
   10.0486   -0.0580    0.0000 C   0  0  0  0  0  0  0  0  0  0  0  0
    9.2242   -1.3111    0.0000 N   0  0  0  0  0  0  0  0  0  0  0  0
    7.7776   -0.9142    0.0000 C   0  0  0  0  0  0  0  0  0  0  0  0
    6.6063   -1.8512    0.0000 O   0  0  0  0  0  0  0  0  0  0  0  0
    5.0270   -0.7618    0.0000 C   0  0  0  0  0  0  0  0  0  0  0  0
    3.6864   -1.4348    0.0000 O   0  0  0  0  0  0  0  0  0  0  0  0
  1  2  1  0
  2  3  1  0
  2  4  1  0
  4  5  1  0
  5  6  1  0
  5 32  1  0
  6  7  1  0
  7  8  2  0
  7  9  1  0
  9 10  1  0
  9 21  1  0
 10 11  1  0
 11 12  2  0
 11 20  1  0
 12 13  1  0
 13 14  2  0
 14 15  1  0
 15 16  1  0
 15 20  2  0
 16 17  2  0
 17 18  1  0
 18 19  2  0
 19 20  1  0
 21 22  1  0
 22 23  2  0
 22 24  1  0
 24 25  1  0
 25 26  1  0
 26 27  2  0
 26 31  1  0
 27 28  1  0
 28 29  2  0
 29 30  1  0
 30 31  2  0
 32 33  2  0
 32 34  1  0
 34 35  1  0
 35 36  1  0
 35 43  1  0
 36 37  1  0
 37 38  1  0
 37 41  1  0
 38 39  1  0
 39 40  1  0
 40 41  1  0
 41 42  2  0
 43 44  2  0
M  END
>  <s_m_entry_id>  (179) 
454

>  <s_m_entry_name>  (179) 
3C-like_protease_GHDDI_ligprep.73

>  <s_m_Source_Path>  (179) 
/home/jgilaber/drug_learning/drug_learning/datasets/SAR1/GHDDI

>  <s_m_Source_File>  (179) 
3C-like_protease_GHDDI_ligprep.sdf

>  <i_m_Source_File_Index>  (179) 
73

>  <s_m_subgroup_title>  (179) 
3C-like_protease_GHDDI_ligprep

>  <s_m_subgroupid>  (179) 
3C-like_protease_GHDDI_ligprep

>  <b_m_subgroup_collapsed>  (179) 
0

$$$$
1680
     RDKit          2D

 33 37  0  0  1  0  0  0  0  0999 V2000
   -6.7006    0.5013    0.0000 C   0  0  0  0  0  0  0  0  0  0  0  0
   -5.2191    0.7365    0.0000 O   0  0  0  0  0  0  0  0  0  0  0  0
   -4.6821    2.1371    0.0000 C   0  0  0  0  0  0  0  0  0  0  0  0
   -5.6265    3.3025    0.0000 N   0  0  0  0  0  0  0  0  0  0  0  0
   -5.0895    4.7030    0.0000 C   0  0  0  0  0  0  0  0  0  0  0  0
   -3.6081    4.9383    0.0000 C   0  0  0  0  0  0  0  0  0  0  0  0
   -2.6637    3.7729    0.0000 C   0  0  0  0  0  0  0  0  0  0  0  0
   -3.2007    2.3723    0.0000 C   0  0  0  0  0  0  0  0  0  0  0  0
   -2.2562    1.2070    0.0000 C   0  0  0  0  0  0  0  0  0  0  0  0
   -2.7932   -0.1936    0.0000 C   0  0  0  0  0  0  0  0  0  0  0  0
   -1.8488   -1.3589    0.0000 C   0  0  0  0  0  0  0  0  0  0  0  0
   -0.3674   -1.1237    0.0000 C   0  0  0  0  0  0  0  0  0  0  0  0
    0.1696    0.2769    0.0000 C   0  0  0  0  0  0  0  0  0  0  0  0
   -0.7748    1.4422    0.0000 C   0  0  0  0  0  0  0  0  0  0  0  0
    0.5771   -2.2891    0.0000 N   0  0  0  0  0  0  0  0  0  0  0  0
    0.0401   -3.6896    0.0000 C   0  0  0  0  0  0  0  0  0  0  0  0
   -1.4414   -3.9249    0.0000 C   0  0  0  0  0  0  0  0  0  0  0  0
   -2.1218   -5.2616    0.0000 C   0  0  0  0  0  0  0  0  0  0  0  0
   -3.6035   -5.0276    0.0000 C   0  0  0  0  0  0  0  0  0  0  0  0
   -3.8387   -3.5461    0.0000 S   0  0  0  0  0  0  0  0  0  0  0  0
   -2.5025   -2.8646    0.0000 C   0  0  0  0  0  0  0  0  0  0  0  0
    2.0585   -2.0538    0.0000 C   0  0  0  0  0  0  0  0  0  0  0  0
    3.0029   -3.2192    0.0000 O   0  0  0  0  0  0  0  0  0  0  0  0
    2.5955   -0.6533    0.0000 C   0  0  0  0  0  0  0  0  0  0  0  0
    4.0770   -0.4180    0.0000 N   0  0  0  0  0  0  0  0  0  0  0  0
    5.1380   -1.4783    0.0000 N   0  0  0  0  0  0  0  0  0  0  0  0
    6.4743   -0.7968    0.0000 N   0  0  0  0  0  0  0  0  0  0  0  0
    6.2390    0.6847    0.0000 C   0  0  0  0  0  0  0  0  0  0  0  0
    7.1826    1.8508    0.0000 C   0  0  0  0  0  0  0  0  0  0  0  0
    6.6445    3.2509    0.0000 C   0  0  0  0  0  0  0  0  0  0  0  0
    5.1628    3.4850    0.0000 C   0  0  0  0  0  0  0  0  0  0  0  0
    4.2193    2.3189    0.0000 C   0  0  0  0  0  0  0  0  0  0  0  0
    4.7574    0.9188    0.0000 C   0  0  0  0  0  0  0  0  0  0  0  0
  1  2  1  0
  2  3  1  0
  3  4  2  0
  3  8  1  0
  4  5  1  0
  5  6  2  0
  6  7  1  0
  7  8  2  0
  8  9  1  0
  9 10  2  0
  9 14  1  0
 10 11  1  0
 11 12  2  0
 12 13  1  0
 12 15  1  0
 13 14  2  0
 15 16  1  0
 15 22  1  0
 16 17  1  0
 17 18  1  0
 17 21  2  0
 18 19  2  0
 19 20  1  0
 20 21  1  0
 22 23  2  0
 22 24  1  0
 24 25  1  0
 25 26  1  0
 25 33  1  0
 26 27  2  0
 27 28  1  0
 28 29  1  0
 28 33  2  0
 29 30  2  0
 30 31  1  0
 31 32  2  0
 32 33  1  0
M  END
>  <s_m_entry_id>  (180) 
507

>  <s_m_entry_name>  (180) 
3C-like_protease_GHDDI_ligprep.126

>  <s_m_Source_Path>  (180) 
/home/jgilaber/drug_learning/drug_learning/datasets/SAR1/GHDDI

>  <s_m_Source_File>  (180) 
3C-like_protease_GHDDI_ligprep.sdf

>  <i_m_Source_File_Index>  (180) 
126

>  <s_m_subgroup_title>  (180) 
3C-like_protease_GHDDI_ligprep

>  <s_m_subgroupid>  (180) 
3C-like_protease_GHDDI_ligprep

>  <b_m_subgroup_collapsed>  (180) 
0

$$$$
1681
     RDKit          2D

 31 35  0  0  1  0  0  0  0  0999 V2000
    2.5074   -3.2676    0.0000 O   0  0  0  0  0  0  0  0  0  0  0  0
    1.6036   -2.0704    0.0000 C   0  0  0  0  0  0  0  0  0  0  0  0
    2.1886   -0.6891    0.0000 C   0  0  0  0  0  0  0  0  0  0  0  0
    3.6772   -0.5051    0.0000 N   0  0  0  0  0  0  0  0  0  0  0  0
    4.7012   -1.6012    0.0000 N   0  0  0  0  0  0  0  0  0  0  0  0
    6.0601   -0.9662    0.0000 N   0  0  0  0  0  0  0  0  0  0  0  0
    5.8760    0.5225    0.0000 C   0  0  0  0  0  0  0  0  0  0  0  0
    6.8592    1.6554    0.0000 C   0  0  0  0  0  0  0  0  0  0  0  0
    6.3696    3.0733    0.0000 C   0  0  0  0  0  0  0  0  0  0  0  0
    4.8969    3.3582    0.0000 C   0  0  0  0  0  0  0  0  0  0  0  0
    3.9138    2.2253    0.0000 C   0  0  0  0  0  0  0  0  0  0  0  0
    4.4033    0.8075    0.0000 C   0  0  0  0  0  0  0  0  0  0  0  0
    0.1150   -2.2544    0.0000 N   0  0  0  0  0  0  0  0  0  0  0  0
   -0.4700   -3.6357    0.0000 C   0  0  0  0  0  0  0  0  0  0  0  0
   -1.9586   -3.8197    0.0000 C   0  0  0  0  0  0  0  0  0  0  0  0
   -2.6847   -5.1323    0.0000 C   0  0  0  0  0  0  0  0  0  0  0  0
   -4.1574   -4.8473    0.0000 C   0  0  0  0  0  0  0  0  0  0  0  0
   -4.3415   -3.3586    0.0000 S   0  0  0  0  0  0  0  0  0  0  0  0
   -2.9825   -2.7236    0.0000 C   0  0  0  0  0  0  0  0  0  0  0  0
   -0.7888   -1.0572    0.0000 C   0  0  0  0  0  0  0  0  0  0  0  0
   -0.2038    0.3240    0.0000 C   0  0  0  0  0  0  0  0  0  0  0  0
   -1.1076    1.5212    0.0000 C   0  0  0  0  0  0  0  0  0  0  0  0
   -2.5962    1.3371    0.0000 C   0  0  0  0  0  0  0  0  0  0  0  0
   -3.1812   -0.0441    0.0000 C   0  0  0  0  0  0  0  0  0  0  0  0
   -2.2774   -1.2413    0.0000 C   0  0  0  0  0  0  0  0  0  0  0  0
   -3.5000    2.5343    0.0000 C   0  0  0  0  0  0  0  0  0  0  0  0
   -2.9150    3.9156    0.0000 C   0  0  0  0  0  0  0  0  0  0  0  0
   -3.8188    5.1128    0.0000 C   0  0  0  0  0  0  0  0  0  0  0  0
   -5.3074    4.9287    0.0000 C   0  0  0  0  0  0  0  0  0  0  0  0
   -5.8924    3.5475    0.0000 C   0  0  0  0  0  0  0  0  0  0  0  0
   -4.9886    2.3503    0.0000 C   0  0  0  0  0  0  0  0  0  0  0  0
  1  2  2  0
  2  3  1  0
  2 13  1  0
  3  4  1  0
  4  5  1  0
  4 12  1  0
  5  6  2  0
  6  7  1  0
  7  8  1  0
  7 12  2  0
  8  9  2  0
  9 10  1  0
 10 11  2  0
 11 12  1  0
 13 14  1  0
 13 20  1  0
 14 15  1  0
 15 16  1  0
 15 19  2  0
 16 17  2  0
 17 18  1  0
 18 19  1  0
 20 21  2  0
 20 25  1  0
 21 22  1  0
 22 23  2  0
 23 24  1  0
 23 26  1  0
 24 25  2  0
 26 27  2  0
 26 31  1  0
 27 28  1  0
 28 29  2  0
 29 30  1  0
 30 31  2  0
M  END
>  <s_m_entry_id>  (181) 
407

>  <s_m_entry_name>  (181) 
3C-like_protease_GHDDI_ligprep.26

>  <s_m_Source_Path>  (181) 
/home/jgilaber/drug_learning/drug_learning/datasets/SAR1/GHDDI

>  <s_m_Source_File>  (181) 
3C-like_protease_GHDDI_ligprep.sdf

>  <i_m_Source_File_Index>  (181) 
26

>  <s_m_subgroup_title>  (181) 
3C-like_protease_GHDDI_ligprep

>  <s_m_subgroupid>  (181) 
3C-like_protease_GHDDI_ligprep

>  <b_m_subgroup_collapsed>  (181) 
0

$$$$
1682
     RDKit          2D

 31 35  0  0  1  0  0  0  0  0999 V2000
    2.4358   -3.3720    0.0000 O   0  0  0  0  0  0  0  0  0  0  0  0
    1.4947   -2.2040    0.0000 C   0  0  0  0  0  0  0  0  0  0  0  0
    2.0357   -0.8049    0.0000 C   0  0  0  0  0  0  0  0  0  0  0  0
    3.5178   -0.5739    0.0000 N   0  0  0  0  0  0  0  0  0  0  0  0
    4.5759   -1.6372    0.0000 N   0  0  0  0  0  0  0  0  0  0  0  0
    5.9140   -0.9595    0.0000 N   0  0  0  0  0  0  0  0  0  0  0  0
    5.6830    0.5226    0.0000 C   0  0  0  0  0  0  0  0  0  0  0  0
    6.6298    1.6860    0.0000 C   0  0  0  0  0  0  0  0  0  0  0  0
    6.0957    3.0877    0.0000 C   0  0  0  0  0  0  0  0  0  0  0  0
    4.6148    3.3260    0.0000 C   0  0  0  0  0  0  0  0  0  0  0  0
    3.6679    2.1626    0.0000 C   0  0  0  0  0  0  0  0  0  0  0  0
    4.2021    0.7609    0.0000 C   0  0  0  0  0  0  0  0  0  0  0  0
    0.0126   -2.4350    0.0000 N   0  0  0  0  0  0  0  0  0  0  0  0
   -0.5284   -3.8340    0.0000 C   0  0  0  0  0  0  0  0  0  0  0  0
   -2.0105   -4.0651    0.0000 C   0  0  0  0  0  0  0  0  0  0  0  0
   -2.6947   -5.3999    0.0000 C   0  0  0  0  0  0  0  0  0  0  0  0
   -4.1757   -5.1616    0.0000 C   0  0  0  0  0  0  0  0  0  0  0  0
   -4.4067   -3.6795    0.0000 S   0  0  0  0  0  0  0  0  0  0  0  0
   -3.0685   -3.0018    0.0000 C   0  0  0  0  0  0  0  0  0  0  0  0
   -0.9285   -1.2670    0.0000 C   0  0  0  0  0  0  0  0  0  0  0  0
   -0.3875    0.1321    0.0000 C   0  0  0  0  0  0  0  0  0  0  0  0
   -1.3286    1.3001    0.0000 C   0  0  0  0  0  0  0  0  0  0  0  0
   -2.8107    1.0691    0.0000 C   0  0  0  0  0  0  0  0  0  0  0  0
   -3.7519    2.2371    0.0000 N   0  0  0  0  0  0  0  0  0  0  0  0
   -3.2109    3.6362    0.0000 C   0  0  0  0  0  0  0  0  0  0  0  0
   -1.7288    3.8672    0.0000 O   0  0  0  0  0  0  0  0  0  0  0  0
   -4.1520    4.8042    0.0000 C   0  0  0  0  0  0  0  0  0  0  0  0
   -5.5511    5.3452    0.0000 C   0  0  0  0  0  0  0  0  0  0  0  0
   -4.3830    6.2863    0.0000 C   0  0  0  0  0  0  0  0  0  0  0  0
   -3.3517   -0.3300    0.0000 C   0  0  0  0  0  0  0  0  0  0  0  0
   -2.4106   -1.4980    0.0000 C   0  0  0  0  0  0  0  0  0  0  0  0
  1  2  2  0
  2  3  1  0
  2 13  1  0
  3  4  1  0
  4  5  1  0
  4 12  1  0
  5  6  2  0
  6  7  1  0
  7  8  1  0
  7 12  2  0
  8  9  2  0
  9 10  1  0
 10 11  2  0
 11 12  1  0
 13 14  1  0
 13 20  1  0
 14 15  1  0
 15 16  1  0
 15 19  2  0
 16 17  2  0
 17 18  1  0
 18 19  1  0
 20 21  2  0
 20 31  1  0
 21 22  1  0
 22 23  2  0
 23 24  1  0
 23 30  1  0
 24 25  1  0
 25 26  2  0
 25 27  1  0
 27 28  1  0
 27 29  1  0
 28 29  1  0
 30 31  2  0
M  END
>  <s_m_entry_id>  (182) 
641

>  <s_m_entry_name>  (182) 
3C-like_protease_GHDDI_ligprep.260

>  <s_m_Source_Path>  (182) 
/home/jgilaber/drug_learning/drug_learning/datasets/SAR1/GHDDI

>  <s_m_Source_File>  (182) 
3C-like_protease_GHDDI_ligprep.sdf

>  <i_m_Source_File_Index>  (182) 
260

>  <s_m_subgroup_title>  (182) 
3C-like_protease_GHDDI_ligprep

>  <s_m_subgroupid>  (182) 
3C-like_protease_GHDDI_ligprep

>  <b_m_subgroup_collapsed>  (182) 
0

$$$$
1685
     RDKit          2D

 40 42  0  0  1  0  0  0  0  0999 V2000
    0.2292   -6.5583    0.0000 C   0  0  0  0  0  0  0  0  0  0  0  0
   -0.1073   -5.0965    0.0000 C   0  0  0  0  0  0  0  0  0  0  0  0
    0.9903   -4.0742    0.0000 C   0  0  0  0  0  0  0  0  0  0  0  0
   -1.5415   -4.6571    0.0000 C   0  0  0  0  0  0  0  0  0  0  0  0
   -1.8780   -3.1953    0.0000 C   0  0  0  0  0  0  0  0  0  0  0  0
   -0.4969   -2.6101    0.0000 N   0  0  0  0  0  0  0  0  0  0  0  0
    0.6008   -1.5878    0.0000 C   0  0  0  0  0  0  0  0  0  0  0  0
    1.7982   -2.4913    0.0000 O   0  0  0  0  0  0  0  0  0  0  0  0
    1.2826   -0.2517    0.0000 C   0  0  0  0  0  0  0  0  0  0  0  0
    1.4663    1.2370    0.0000 C   0  0  0  0  0  0  0  0  0  0  0  0
    0.7704    3.0847    0.0000 C   0  0  0  0  0  0  0  0  0  0  0  0
   -0.7019    3.3718    0.0000 C   0  0  0  0  0  0  0  0  0  0  0  0
   -0.8837    4.8608    0.0000 N   0  0  0  0  0  0  0  0  0  0  0  0
   -2.3179    5.3002    0.0000 C   0  0  0  0  0  0  0  0  0  0  0  0
   -3.8159    5.2226    0.0000 C   0  0  0  0  0  0  0  0  0  0  0  0
   -5.1970    4.6374    0.0000 C   0  0  0  0  0  0  0  0  0  0  0  0
   -6.2947    3.6151    0.0000 N   0  0  0  0  0  0  0  0  0  0  0  0
   -6.9765    2.2790    0.0000 C   0  0  0  0  0  0  0  0  0  0  0  0
   -8.4107    2.7185    0.0000 O   0  0  0  0  0  0  0  0  0  0  0  0
   -7.1603    0.7903    0.0000 C   0  0  0  0  0  0  0  0  0  0  0  0
   -6.8238   -0.6714    0.0000 C   0  0  0  0  0  0  0  0  0  0  0  0
   -6.0076   -1.9300    0.0000 C   0  0  0  0  0  0  0  0  0  0  0  0
   -4.8102   -2.8334    0.0000 N   0  0  0  0  0  0  0  0  0  0  0  0
   -3.3760   -3.2729    0.0000 C   0  0  0  0  0  0  0  0  0  0  0  0
   -3.5597   -4.7616    0.0000 O   0  0  0  0  0  0  0  0  0  0  0  0
   -7.1053   -2.9523    0.0000 C   0  0  0  0  0  0  0  0  0  0  0  0
   -8.5394   -2.5128    0.0000 O   0  0  0  0  0  0  0  0  0  0  0  0
    0.4761    5.4938    0.0000 N   0  0  0  0  0  0  0  0  0  0  0  0
    1.4984    4.3962    0.0000 N   0  0  0  0  0  0  0  0  0  0  0  0
    2.7168   -0.6912    0.0000 N   0  0  0  0  0  0  0  0  0  0  0  0
    3.8144    0.3312    0.0000 C   0  0  0  0  0  0  0  0  0  0  0  0
    3.4779    1.7929    0.0000 O   0  0  0  0  0  0  0  0  0  0  0  0
    5.2486   -0.1083    0.0000 O   0  0  0  0  0  0  0  0  0  0  0  0
    6.3463    0.9140    0.0000 C   0  0  0  0  0  0  0  0  0  0  0  0
    7.7805    0.4746    0.0000 C   0  0  0  0  0  0  0  0  0  0  0  0
    8.8782    1.4969    0.0000 C   0  0  0  0  0  0  0  0  0  0  0  0
   10.3123    1.0574    0.0000 C   0  0  0  0  0  0  0  0  0  0  0  0
   10.6488   -0.4044    0.0000 C   0  0  0  0  0  0  0  0  0  0  0  0
    9.5512   -1.4267    0.0000 C   0  0  0  0  0  0  0  0  0  0  0  0
    8.1170   -0.9872    0.0000 C   0  0  0  0  0  0  0  0  0  0  0  0
  1  2  1  0
  2  3  1  0
  2  4  1  0
  4  5  1  0
  5  6  1  0
  5 24  1  0
  6  7  1  0
  7  8  2  0
  7  9  1  0
  9 10  1  0
  9 30  1  0
 10 11  1  0
 11 12  2  0
 11 29  1  0
 12 13  1  0
 13 14  1  0
 13 28  1  0
 14 15  1  0
 15 16  1  0
 16 17  1  0
 17 18  1  0
 18 19  2  0
 18 20  1  0
 20 21  1  0
 21 22  1  0
 22 23  1  0
 22 26  1  0
 23 24  1  0
 24 25  2  0
 26 27  2  0
 28 29  2  0
 30 31  1  0
 31 32  2  0
 31 33  1  0
 33 34  1  0
 34 35  1  0
 35 36  2  0
 35 40  1  0
 36 37  1  0
 37 38  2  0
 38 39  1  0
 39 40  2  0
M  END
>  <s_m_entry_id>  (183) 
880

>  <s_m_entry_name>  (183) 
3C-like_protease_GHDDI_ligprep.499

>  <s_m_Source_Path>  (183) 
/home/jgilaber/drug_learning/drug_learning/datasets/SAR1/GHDDI

>  <s_m_Source_File>  (183) 
3C-like_protease_GHDDI_ligprep.sdf

>  <i_m_Source_File_Index>  (183) 
499

>  <s_m_subgroup_title>  (183) 
3C-like_protease_GHDDI_ligprep

>  <s_m_subgroupid>  (183) 
3C-like_protease_GHDDI_ligprep

>  <b_m_subgroup_collapsed>  (183) 
0

$$$$
1694
     RDKit          2D

 35 37  0  0  1  0  0  0  0  0999 V2000
   -6.1311   -7.4824    0.0000 C   0  0  0  0  0  0  0  0  0  0  0  0
   -5.9434   -5.9942    0.0000 N   0  0  0  0  0  0  0  0  0  0  0  0
   -7.1383   -5.0875    0.0000 C   0  0  0  0  0  0  0  0  0  0  0  0
   -4.5607   -5.4127    0.0000 C   0  0  0  0  0  0  0  0  0  0  0  0
   -4.3729   -3.9245    0.0000 C   0  0  0  0  0  0  0  0  0  0  0  0
   -2.9902   -3.3430    0.0000 C   0  0  0  0  0  0  0  0  0  0  0  0
   -2.8025   -1.8548    0.0000 N   0  0  0  0  0  0  0  0  0  0  0  0
   -1.4198   -1.2732    0.0000 C   0  0  0  0  0  0  0  0  0  0  0  0
   -0.2249   -2.1799    0.0000 O   0  0  0  0  0  0  0  0  0  0  0  0
   -1.2321    0.2150    0.0000 C   0  0  0  0  0  0  0  0  0  0  0  0
    0.1506    0.7965    0.0000 C   0  0  0  0  0  0  0  0  0  0  0  0
    1.3456   -0.1102    0.0000 C   0  0  0  0  0  0  0  0  0  0  0  0
    2.7815    0.3236    0.0000 O   0  0  0  0  0  0  0  0  0  0  0  0
    3.6378   -0.9080    0.0000 C   0  0  0  0  0  0  0  0  0  0  0  0
    2.7311   -2.1030    0.0000 C   0  0  0  0  0  0  0  0  0  0  0  0
    1.3144   -1.6099    0.0000 C   0  0  0  0  0  0  0  0  0  0  0  0
    5.1374   -0.9392    0.0000 C   0  0  0  0  0  0  0  0  0  0  0  0
    5.8603   -2.2535    0.0000 C   0  0  0  0  0  0  0  0  0  0  0  0
    7.3600   -2.2847    0.0000 C   0  0  0  0  0  0  0  0  0  0  0  0
    8.1368   -1.0015    0.0000 C   0  0  0  0  0  0  0  0  0  0  0  0
    7.4139    0.3128    0.0000 C   0  0  0  0  0  0  0  0  0  0  0  0
    5.9143    0.3440    0.0000 C   0  0  0  0  0  0  0  0  0  0  0  0
    8.1908    1.5960    0.0000 N   0  0  0  0  0  0  0  0  0  0  0  0
    7.4679    2.9104    0.0000 O   0  0  0  0  0  0  0  0  0  0  0  0
    9.6904    1.5649    0.0000 O   0  0  0  0  0  0  0  0  0  0  0  0
   -2.4270    1.1217    0.0000 N   0  0  0  0  0  0  0  0  0  0  0  0
   -2.2393    2.6099    0.0000 C   0  0  0  0  0  0  0  0  0  0  0  0
   -0.8566    3.1914    0.0000 O   0  0  0  0  0  0  0  0  0  0  0  0
   -3.4342    3.5166    0.0000 C   0  0  0  0  0  0  0  0  0  0  0  0
   -3.2465    5.0048    0.0000 C   0  0  0  0  0  0  0  0  0  0  0  0
   -4.4414    5.9114    0.0000 C   0  0  0  0  0  0  0  0  0  0  0  0
   -5.8241    5.3299    0.0000 C   0  0  0  0  0  0  0  0  0  0  0  0
   -7.0191    6.2366    0.0000 C   0  0  0  0  0  0  0  0  0  0  0  0
   -6.0119    3.8417    0.0000 C   0  0  0  0  0  0  0  0  0  0  0  0
   -4.8169    2.9350    0.0000 C   0  0  0  0  0  0  0  0  0  0  0  0
  1  2  1  0
  2  3  1  0
  2  4  1  0
  4  5  1  0
  5  6  1  0
  6  7  1  0
  7  8  1  0
  8  9  2  0
  8 10  1  0
 10 11  2  0
 10 26  1  0
 11 12  1  0
 12 13  1  0
 12 16  2  0
 13 14  1  0
 14 15  2  0
 14 17  1  0
 15 16  1  0
 17 18  2  0
 17 22  1  0
 18 19  1  0
 19 20  2  0
 20 21  1  0
 21 22  2  0
 21 23  1  0
 23 24  2  0
 23 25  1  0
 26 27  1  0
 27 28  2  0
 27 29  1  0
 29 30  2  0
 29 35  1  0
 30 31  1  0
 31 32  2  0
 32 33  1  0
 32 34  1  0
 34 35  2  0
M  CHG  3   2   1  23   1  25  -1
M  END
>  <s_m_entry_id>  (184) 
778

>  <s_m_entry_name>  (184) 
3C-like_protease_GHDDI_ligprep.397

>  <s_m_Source_Path>  (184) 
/home/jgilaber/drug_learning/drug_learning/datasets/SAR1/GHDDI

>  <s_m_Source_File>  (184) 
3C-like_protease_GHDDI_ligprep.sdf

>  <i_m_Source_File_Index>  (184) 
397

>  <s_m_subgroup_title>  (184) 
3C-like_protease_GHDDI_ligprep

>  <s_m_subgroupid>  (184) 
3C-like_protease_GHDDI_ligprep

>  <b_m_subgroup_collapsed>  (184) 
0

$$$$
1695
     RDKit          2D

 35 37  0  0  1  0  0  0  0  0999 V2000
   -5.4578   -7.7650    0.0000 C   0  0  0  0  0  0  0  0  0  0  0  0
   -5.3431   -6.2694    0.0000 N   0  0  0  0  0  0  0  0  0  0  0  0
   -6.5810   -5.4222    0.0000 C   0  0  0  0  0  0  0  0  0  0  0  0
   -3.9905   -5.6209    0.0000 C   0  0  0  0  0  0  0  0  0  0  0  0
   -3.8758   -4.1253    0.0000 C   0  0  0  0  0  0  0  0  0  0  0  0
   -2.5232   -3.4768    0.0000 C   0  0  0  0  0  0  0  0  0  0  0  0
   -2.4085   -1.9812    0.0000 N   0  0  0  0  0  0  0  0  0  0  0  0
   -1.0559   -1.3327    0.0000 C   0  0  0  0  0  0  0  0  0  0  0  0
    0.1820   -2.1799    0.0000 O   0  0  0  0  0  0  0  0  0  0  0  0
   -0.9412    0.1629    0.0000 C   0  0  0  0  0  0  0  0  0  0  0  0
    0.4114    0.8113    0.0000 C   0  0  0  0  0  0  0  0  0  0  0  0
    1.6492   -0.0358    0.0000 C   0  0  0  0  0  0  0  0  0  0  0  0
    3.0622    0.4677    0.0000 O   0  0  0  0  0  0  0  0  0  0  0  0
    3.9777   -0.7205    0.0000 C   0  0  0  0  0  0  0  0  0  0  0  0
    3.1306   -1.9584    0.0000 C   0  0  0  0  0  0  0  0  0  0  0  0
    1.6915   -1.5352    0.0000 C   0  0  0  0  0  0  0  0  0  0  0  0
    5.4771   -0.6782    0.0000 C   0  0  0  0  0  0  0  0  0  0  0  0
    6.2634   -1.9556    0.0000 C   0  0  0  0  0  0  0  0  0  0  0  0
    7.7628   -1.9133    0.0000 C   0  0  0  0  0  0  0  0  0  0  0  0
    8.4759   -0.5937    0.0000 C   0  0  0  0  0  0  0  0  0  0  0  0
    7.6896    0.6837    0.0000 C   0  0  0  0  0  0  0  0  0  0  0  0
    6.1902    0.6414    0.0000 C   0  0  0  0  0  0  0  0  0  0  0  0
    5.4039    1.9188    0.0000 N   0  0  0  0  0  0  0  0  0  0  0  0
    3.9045    1.8766    0.0000 O   0  0  0  0  0  0  0  0  0  0  0  0
    6.1170    3.2385    0.0000 O   0  0  0  0  0  0  0  0  0  0  0  0
   -2.1791    1.0100    0.0000 N   0  0  0  0  0  0  0  0  0  0  0  0
   -2.0644    2.5056    0.0000 C   0  0  0  0  0  0  0  0  0  0  0  0
   -0.7118    3.1541    0.0000 O   0  0  0  0  0  0  0  0  0  0  0  0
   -3.3023    3.3527    0.0000 C   0  0  0  0  0  0  0  0  0  0  0  0
   -3.1876    4.8484    0.0000 C   0  0  0  0  0  0  0  0  0  0  0  0
   -4.4255    5.6955    0.0000 C   0  0  0  0  0  0  0  0  0  0  0  0
   -5.7781    5.0470    0.0000 C   0  0  0  0  0  0  0  0  0  0  0  0
   -7.0159    5.8942    0.0000 C   0  0  0  0  0  0  0  0  0  0  0  0
   -5.8928    3.5514    0.0000 C   0  0  0  0  0  0  0  0  0  0  0  0
   -4.6549    2.7043    0.0000 C   0  0  0  0  0  0  0  0  0  0  0  0
  1  2  1  0
  2  3  1  0
  2  4  1  0
  4  5  1  0
  5  6  1  0
  6  7  1  0
  7  8  1  0
  8  9  2  0
  8 10  1  0
 10 11  2  0
 10 26  1  0
 11 12  1  0
 12 13  1  0
 12 16  2  0
 13 14  1  0
 14 15  2  0
 14 17  1  0
 15 16  1  0
 17 18  2  0
 17 22  1  0
 18 19  1  0
 19 20  2  0
 20 21  1  0
 21 22  2  0
 22 23  1  0
 23 24  2  0
 23 25  1  0
 26 27  1  0
 27 28  2  0
 27 29  1  0
 29 30  2  0
 29 35  1  0
 30 31  1  0
 31 32  2  0
 32 33  1  0
 32 34  1  0
 34 35  2  0
M  CHG  3   2   1  23   1  25  -1
M  END
>  <s_m_entry_id>  (185) 
796

>  <s_m_entry_name>  (185) 
3C-like_protease_GHDDI_ligprep.415

>  <s_m_Source_Path>  (185) 
/home/jgilaber/drug_learning/drug_learning/datasets/SAR1/GHDDI

>  <s_m_Source_File>  (185) 
3C-like_protease_GHDDI_ligprep.sdf

>  <i_m_Source_File_Index>  (185) 
415

>  <s_m_subgroup_title>  (185) 
3C-like_protease_GHDDI_ligprep

>  <s_m_subgroupid>  (185) 
3C-like_protease_GHDDI_ligprep

>  <b_m_subgroup_collapsed>  (185) 
0

$$$$
1717
     RDKit          2D

 45 46  0  0  1  0  0  0  0  0999 V2000
   -6.5004    0.5041    0.0000 C   0  0  0  0  0  0  0  0  0  0  0  0
   -5.0040    0.6079    0.0000 C   0  0  0  0  0  0  0  0  0  0  0  0
   -4.1660   -0.6361    0.0000 C   0  0  0  0  0  0  0  0  0  0  0  0
   -4.3457    1.9557    0.0000 C   0  0  0  0  0  0  0  0  0  0  0  0
   -2.8493    2.0595    0.0000 C   0  0  0  0  0  0  0  0  0  0  0  0
   -2.1910    3.4073    0.0000 N   0  0  0  0  0  0  0  0  0  0  0  0
   -0.6946    3.5111    0.0000 C   0  0  0  0  0  0  0  0  0  0  0  0
    0.1435    2.2670    0.0000 O   0  0  0  0  0  0  0  0  0  0  0  0
   -0.0362    4.8589    0.0000 C   0  0  0  0  0  0  0  0  0  0  0  0
    1.4602    4.9626    0.0000 N   0  0  0  0  0  0  0  0  0  0  0  0
    2.2983    3.7186    0.0000 C   0  0  0  0  0  0  0  0  0  0  0  0
    1.6399    2.3708    0.0000 O   0  0  0  0  0  0  0  0  0  0  0  0
    3.7947    3.8224    0.0000 C   0  0  0  0  0  0  0  0  0  0  0  0
    4.4530    5.1702    0.0000 C   0  0  0  0  0  0  0  0  0  0  0  0
    4.6327    2.5783    0.0000 N   0  0  0  0  0  0  0  0  0  0  0  0
    3.9744    1.2305    0.0000 C   0  0  0  0  0  0  0  0  0  0  0  0
    2.4780    1.1268    0.0000 O   0  0  0  0  0  0  0  0  0  0  0  0
    4.8125   -0.0135    0.0000 O   0  0  0  0  0  0  0  0  0  0  0  0
    4.1541   -1.3613    0.0000 C   0  0  0  0  0  0  0  0  0  0  0  0
    4.9922   -2.6054    0.0000 C   0  0  0  0  0  0  0  0  0  0  0  0
    4.3339   -3.9532    0.0000 C   0  0  0  0  0  0  0  0  0  0  0  0
    5.1719   -5.1972    0.0000 C   0  0  0  0  0  0  0  0  0  0  0  0
    6.6683   -5.0935    0.0000 C   0  0  0  0  0  0  0  0  0  0  0  0
    7.3267   -3.7456    0.0000 C   0  0  0  0  0  0  0  0  0  0  0  0
    6.4886   -2.5016    0.0000 C   0  0  0  0  0  0  0  0  0  0  0  0
   -0.8743    6.1029    0.0000 C   0  0  0  0  0  0  0  0  0  0  0  0
   -2.3707    5.9992    0.0000 C   0  0  0  0  0  0  0  0  0  0  0  0
   -0.2160    7.4507    0.0000 C   0  0  0  0  0  0  0  0  0  0  0  0
   -2.0112    0.8154    0.0000 C   0  0  0  0  0  0  0  0  0  0  0  0
   -0.5148    0.9192    0.0000 O   0  0  0  0  0  0  0  0  0  0  0  0
   -2.6696   -0.5324    0.0000 N   0  0  0  0  0  0  0  0  0  0  0  0
   -1.8315   -1.7764    0.0000 C   0  0  0  0  0  0  0  0  0  0  0  0
   -2.4898   -3.1242    0.0000 C   0  0  0  0  0  0  0  0  0  0  0  0
   -3.9862   -3.2280    0.0000 C   0  0  0  0  0  0  0  0  0  0  0  0
   -4.6446   -4.5758    0.0000 C   0  0  0  0  0  0  0  0  0  0  0  0
   -6.1410   -4.6796    0.0000 C   0  0  0  0  0  0  0  0  0  0  0  0
   -6.9791   -3.4355    0.0000 C   0  0  0  0  0  0  0  0  0  0  0  0
   -6.3207   -2.0877    0.0000 C   0  0  0  0  0  0  0  0  0  0  0  0
   -4.8243   -1.9839    0.0000 C   0  0  0  0  0  0  0  0  0  0  0  0
   -0.3351   -1.6726    0.0000 C   0  0  0  0  0  0  0  0  0  0  0  0
    0.3232   -0.3248    0.0000 O   0  0  0  0  0  0  0  0  0  0  0  0
    0.5030   -2.9167    0.0000 C   0  0  0  0  0  0  0  0  0  0  0  0
    1.3410   -4.1607    0.0000 F   0  0  0  0  0  0  0  0  0  0  0  0
    1.7470   -2.0786    0.0000 F   0  0  0  0  0  0  0  0  0  0  0  0
   -0.7411   -3.7547    0.0000 F   0  0  0  0  0  0  0  0  0  0  0  0
  1  2  1  0
  2  3  1  0
  2  4  1  0
  4  5  1  0
  5  6  1  0
  5 29  1  0
  6  7  1  0
  7  8  2  0
  7  9  1  0
  9 10  1  0
  9 26  1  0
 10 11  1  0
 11 12  2  0
 11 13  1  0
 13 14  1  0
 13 15  1  0
 15 16  1  0
 16 17  2  0
 16 18  1  0
 18 19  1  0
 19 20  1  0
 20 21  2  0
 20 25  1  0
 21 22  1  0
 22 23  2  0
 23 24  1  0
 24 25  2  0
 26 27  1  0
 26 28  1  0
 29 30  2  0
 29 31  1  0
 31 32  1  0
 32 33  1  0
 32 40  1  0
 33 34  1  0
 34 35  2  0
 34 39  1  0
 35 36  1  0
 36 37  2  0
 37 38  1  0
 38 39  2  0
 40 41  2  0
 40 42  1  0
 42 43  1  0
 42 44  1  0
 42 45  1  0
M  END
>  <s_m_entry_id>  (186) 
458

>  <s_m_entry_name>  (186) 
3C-like_protease_GHDDI_ligprep.77

>  <s_m_Source_Path>  (186) 
/home/jgilaber/drug_learning/drug_learning/datasets/SAR1/GHDDI

>  <s_m_Source_File>  (186) 
3C-like_protease_GHDDI_ligprep.sdf

>  <i_m_Source_File_Index>  (186) 
77

>  <s_m_subgroup_title>  (186) 
3C-like_protease_GHDDI_ligprep

>  <s_m_subgroupid>  (186) 
3C-like_protease_GHDDI_ligprep

>  <b_m_subgroup_collapsed>  (186) 
0

$$$$
1720
     RDKit          2D

 15 16  0  0  1  0  0  0  0  0999 V2000
   -3.9766   -2.2450    0.0000 Cl  0  0  0  0  0  0  0  0  0  0  0  0
   -3.3943   -0.8627    0.0000 C   0  0  0  0  0  0  0  0  0  0  0  0
   -4.3003    0.3328    0.0000 C   0  0  0  0  0  0  0  0  0  0  0  0
   -3.7180    1.7152    0.0000 N   0  0  0  0  0  0  0  0  0  0  0  0
   -2.2297    1.9021    0.0000 C   0  0  0  0  0  0  0  0  0  0  0  0
   -1.3237    0.7066    0.0000 C   0  0  0  0  0  0  0  0  0  0  0  0
    0.1646    0.8935    0.0000 O   0  0  0  0  0  0  0  0  0  0  0  0
    1.0706   -0.3020    0.0000 C   0  0  0  0  0  0  0  0  0  0  0  0
    0.4883   -1.6843    0.0000 O   0  0  0  0  0  0  0  0  0  0  0  0
    2.5590   -0.1151    0.0000 C   0  0  0  0  0  0  0  0  0  0  0  0
    3.2826    1.1989    0.0000 C   0  0  0  0  0  0  0  0  0  0  0  0
    4.7558    0.9167    0.0000 C   0  0  0  0  0  0  0  0  0  0  0  0
    4.9427   -0.5716    0.0000 C   0  0  0  0  0  0  0  0  0  0  0  0
    3.5850   -1.2093    0.0000 S   0  0  0  0  0  0  0  0  0  0  0  0
   -1.9060   -0.6758    0.0000 C   0  0  0  0  0  0  0  0  0  0  0  0
  1  2  1  0
  2  3  2  0
  2 15  1  0
  3  4  1  0
  4  5  2  0
  5  6  1  0
  6  7  1  0
  6 15  2  0
  7  8  1  0
  8  9  2  0
  8 10  1  0
 10 11  2  0
 10 14  1  0
 11 12  1  0
 12 13  2  0
 13 14  1  0
M  END
>  <s_m_entry_id>  (187) 
484

>  <s_m_entry_name>  (187) 
3C-like_protease_GHDDI_ligprep.103

>  <s_m_Source_Path>  (187) 
/home/jgilaber/drug_learning/drug_learning/datasets/SAR1/GHDDI

>  <s_m_Source_File>  (187) 
3C-like_protease_GHDDI_ligprep.sdf

>  <i_m_Source_File_Index>  (187) 
103

>  <s_m_subgroup_title>  (187) 
3C-like_protease_GHDDI_ligprep

>  <s_m_subgroupid>  (187) 
3C-like_protease_GHDDI_ligprep

>  <b_m_subgroup_collapsed>  (187) 
0

$$$$
1728
     RDKit          2D

 37 40  0  0  1  0  0  0  0  0999 V2000
   -9.3446   -2.1431    0.0000 C   0  0  0  0  0  0  0  0  0  0  0  0
   -7.9160   -1.6858    0.0000 O   0  0  0  0  0  0  0  0  0  0  0  0
   -7.5977   -0.2200    0.0000 C   0  0  0  0  0  0  0  0  0  0  0  0
   -8.7080    0.7886    0.0000 C   0  0  0  0  0  0  0  0  0  0  0  0
   -8.3897    2.2544    0.0000 C   0  0  0  0  0  0  0  0  0  0  0  0
   -6.9611    2.7117    0.0000 C   0  0  0  0  0  0  0  0  0  0  0  0
   -5.8508    1.7031    0.0000 C   0  0  0  0  0  0  0  0  0  0  0  0
   -4.3583    1.8534    0.0000 N   0  0  0  0  0  0  0  0  0  0  0  0
   -3.7542    0.4804    0.0000 C   0  0  0  0  0  0  0  0  0  0  0  0
   -4.8733   -0.5184    0.0000 C   0  0  0  0  0  0  0  0  0  0  0  0
   -6.1691    0.2373    0.0000 C   0  0  0  0  0  0  0  0  0  0  0  0
   -2.2884    0.1621    0.0000 C   0  0  0  0  0  0  0  0  0  0  0  0
   -1.2798    1.2724    0.0000 O   0  0  0  0  0  0  0  0  0  0  0  0
   -1.8311   -1.2665    0.0000 N   0  0  0  0  0  0  0  0  0  0  0  0
   -0.3653   -1.5848    0.0000 C   0  0  0  0  0  0  0  0  0  0  0  0
    0.0920   -3.0134    0.0000 C   0  0  0  0  0  0  0  0  0  0  0  0
    1.5578   -3.3317    0.0000 C   0  0  0  0  0  0  0  0  0  0  0  0
    2.0151   -4.7603    0.0000 C   0  0  0  0  0  0  0  0  0  0  0  0
    3.4809   -5.0786    0.0000 C   0  0  0  0  0  0  0  0  0  0  0  0
    4.4895   -3.9683    0.0000 C   0  0  0  0  0  0  0  0  0  0  0  0
    4.0322   -2.5397    0.0000 C   0  0  0  0  0  0  0  0  0  0  0  0
    2.5664   -2.2214    0.0000 C   0  0  0  0  0  0  0  0  0  0  0  0
    0.6433   -0.4745    0.0000 C   0  0  0  0  0  0  0  0  0  0  0  0
    0.1860    0.9541    0.0000 O   0  0  0  0  0  0  0  0  0  0  0  0
    2.1091   -0.7928    0.0000 N   0  0  0  0  0  0  0  0  0  0  0  0
    3.1177    0.3175    0.0000 C   0  0  0  0  0  0  0  0  0  0  0  0
    4.5835   -0.0008    0.0000 C   0  0  0  0  0  0  0  0  0  0  0  0
    5.5921    1.1095    0.0000 C   0  0  0  0  0  0  0  0  0  0  0  0
    5.2867    2.5781    0.0000 C   0  0  0  0  0  0  0  0  0  0  0  0
    6.5890    3.3224    0.0000 C   0  0  0  0  0  0  0  0  0  0  0  0
    7.6993    2.3138    0.0000 N   0  0  0  0  0  0  0  0  0  0  0  0
    7.0832    0.9462    0.0000 C   0  0  0  0  0  0  0  0  0  0  0  0
    7.8275   -0.3562    0.0000 O   0  0  0  0  0  0  0  0  0  0  0  0
    2.6604    1.7461    0.0000 C   0  0  0  0  0  0  0  0  0  0  0  0
    1.1946    2.0644    0.0000 O   0  0  0  0  0  0  0  0  0  0  0  0
    3.6690    2.8564    0.0000 C   0  0  0  0  0  0  0  0  0  0  0  0
    3.2117    4.2850    0.0000 O   0  0  0  0  0  0  0  0  0  0  0  0
  1  2  1  0
  2  3  1  0
  3  4  2  0
  3 11  1  0
  4  5  1  0
  5  6  2  0
  6  7  1  0
  7  8  1  0
  7 11  2  0
  8  9  1  0
  9 10  2  0
  9 12  1  0
 10 11  1  0
 12 13  2  0
 12 14  1  0
 14 15  1  0
 15 16  1  0
 15 23  1  0
 16 17  1  0
 17 18  1  0
 17 22  1  0
 18 19  1  0
 19 20  1  0
 20 21  1  0
 21 22  1  0
 23 24  2  0
 23 25  1  0
 25 26  1  0
 26 27  1  0
 26 34  1  0
 27 28  1  0
 28 29  1  0
 28 32  1  0
 29 30  1  0
 30 31  1  0
 31 32  1  0
 32 33  2  0
 34 35  2  0
 34 36  1  0
 36 37  1  0
M  END
>  <s_m_entry_id>  (188) 
391

>  <s_m_entry_name>  (188) 
3C-like_protease_GHDDI_ligprep.10

>  <s_m_Source_Path>  (188) 
/home/jgilaber/drug_learning/drug_learning/datasets/SAR1/GHDDI

>  <s_m_Source_File>  (188) 
3C-like_protease_GHDDI_ligprep.sdf

>  <i_m_Source_File_Index>  (188) 
10

>  <s_m_subgroup_title>  (188) 
3C-like_protease_GHDDI_ligprep

>  <s_m_subgroupid>  (188) 
3C-like_protease_GHDDI_ligprep

>  <b_m_subgroup_collapsed>  (188) 
0

$$$$
1730
     RDKit          2D

 35 37  0  0  1  0  0  0  0  0999 V2000
   -9.1680   -1.8550    0.0000 C   0  0  0  0  0  0  0  0  0  0  0  0
   -7.7154   -1.4806    0.0000 O   0  0  0  0  0  0  0  0  0  0  0  0
   -7.3134   -0.0355    0.0000 C   0  0  0  0  0  0  0  0  0  0  0  0
   -8.3639    1.0353    0.0000 C   0  0  0  0  0  0  0  0  0  0  0  0
   -7.9618    2.4804    0.0000 C   0  0  0  0  0  0  0  0  0  0  0  0
   -6.5093    2.8548    0.0000 C   0  0  0  0  0  0  0  0  0  0  0  0
   -5.4588    1.7840    0.0000 C   0  0  0  0  0  0  0  0  0  0  0  0
   -3.9602    1.8482    0.0000 N   0  0  0  0  0  0  0  0  0  0  0  0
   -3.4360    0.4428    0.0000 C   0  0  0  0  0  0  0  0  0  0  0  0
   -4.6107   -0.4900    0.0000 C   0  0  0  0  0  0  0  0  0  0  0  0
   -5.8609    0.3389    0.0000 C   0  0  0  0  0  0  0  0  0  0  0  0
   -1.9909    0.0407    0.0000 C   0  0  0  0  0  0  0  0  0  0  0  0
   -0.9202    1.0912    0.0000 O   0  0  0  0  0  0  0  0  0  0  0  0
   -1.6165   -1.4118    0.0000 N   0  0  0  0  0  0  0  0  0  0  0  0
   -0.1714   -1.8138    0.0000 C   0  0  0  0  0  0  0  0  0  0  0  0
    0.2030   -3.2664    0.0000 C   0  0  0  0  0  0  0  0  0  0  0  0
    1.6481   -3.6684    0.0000 C   0  0  0  0  0  0  0  0  0  0  0  0
    1.2460   -5.1135    0.0000 C   0  0  0  0  0  0  0  0  0  0  0  0
    2.0501   -2.2233    0.0000 C   0  0  0  0  0  0  0  0  0  0  0  0
    3.0932   -4.0704    0.0000 C   0  0  0  0  0  0  0  0  0  0  0  0
    0.8993   -0.7633    0.0000 C   0  0  0  0  0  0  0  0  0  0  0  0
    0.5249    0.6892    0.0000 O   0  0  0  0  0  0  0  0  0  0  0  0
    2.3444   -1.1654    0.0000 N   0  0  0  0  0  0  0  0  0  0  0  0
    3.4152   -0.1149    0.0000 C   0  0  0  0  0  0  0  0  0  0  0  0
    4.8603   -0.5169    0.0000 C   0  0  0  0  0  0  0  0  0  0  0  0
    5.9310    0.5336    0.0000 C   0  0  0  0  0  0  0  0  0  0  0  0
    5.7105    2.0173    0.0000 C   0  0  0  0  0  0  0  0  0  0  0  0
    7.0535    2.6855    0.0000 C   0  0  0  0  0  0  0  0  0  0  0  0
    8.1040    1.6147    0.0000 N   0  0  0  0  0  0  0  0  0  0  0  0
    7.4103    0.2848    0.0000 C   0  0  0  0  0  0  0  0  0  0  0  0
    8.0785   -1.0582    0.0000 O   0  0  0  0  0  0  0  0  0  0  0  0
    3.0408    1.3376    0.0000 C   0  0  0  0  0  0  0  0  0  0  0  0
    1.5957    1.7397    0.0000 O   0  0  0  0  0  0  0  0  0  0  0  0
    4.1115    2.3881    0.0000 C   0  0  0  0  0  0  0  0  0  0  0  0
    3.7371    3.8407    0.0000 O   0  0  0  0  0  0  0  0  0  0  0  0
  1  2  1  0
  2  3  1  0
  3  4  2  0
  3 11  1  0
  4  5  1  0
  5  6  2  0
  6  7  1  0
  7  8  1  0
  7 11  2  0
  8  9  1  0
  9 10  2  0
  9 12  1  0
 10 11  1  0
 12 13  2  0
 12 14  1  0
 14 15  1  0
 15 16  1  0
 15 21  1  0
 16 17  1  0
 17 18  1  0
 17 19  1  0
 17 20  1  0
 21 22  2  0
 21 23  1  0
 23 24  1  0
 24 25  1  0
 24 32  1  0
 25 26  1  0
 26 27  1  0
 26 30  1  0
 27 28  1  0
 28 29  1  0
 29 30  1  0
 30 31  2  0
 32 33  2  0
 32 34  1  0
 34 35  1  0
M  END
>  <s_m_entry_id>  (189) 
390

>  <s_m_entry_name>  (189) 
3C-like_protease_GHDDI_ligprep.9

>  <s_m_Source_Path>  (189) 
/home/jgilaber/drug_learning/drug_learning/datasets/SAR1/GHDDI

>  <s_m_Source_File>  (189) 
3C-like_protease_GHDDI_ligprep.sdf

>  <i_m_Source_File_Index>  (189) 
9

>  <s_m_subgroup_title>  (189) 
3C-like_protease_GHDDI_ligprep

>  <s_m_subgroupid>  (189) 
3C-like_protease_GHDDI_ligprep

>  <b_m_subgroup_collapsed>  (189) 
0

$$$$
1731
     RDKit          2D

 35 37  0  0  1  0  0  0  0  0999 V2000
   -9.1396   -1.8544    0.0000 C   0  0  0  0  0  0  0  0  0  0  0  0
   -7.6935   -1.4556    0.0000 O   0  0  0  0  0  0  0  0  0  0  0  0
   -7.3159   -0.0040    0.0000 C   0  0  0  0  0  0  0  0  0  0  0  0
   -8.3842    1.0490    0.0000 C   0  0  0  0  0  0  0  0  0  0  0  0
   -8.0065    2.5006    0.0000 C   0  0  0  0  0  0  0  0  0  0  0  0
   -6.5605    2.8994    0.0000 C   0  0  0  0  0  0  0  0  0  0  0  0
   -5.4921    1.8465    0.0000 C   0  0  0  0  0  0  0  0  0  0  0  0
   -3.9948    1.9358    0.0000 N   0  0  0  0  0  0  0  0  0  0  0  0
   -3.4471    0.5394    0.0000 C   0  0  0  0  0  0  0  0  0  0  0  0
   -4.6059   -0.4130    0.0000 C   0  0  0  0  0  0  0  0  0  0  0  0
   -5.8698    0.3948    0.0000 C   0  0  0  0  0  0  0  0  0  0  0  0
   -1.9954    0.1617    0.0000 C   0  0  0  0  0  0  0  0  0  0  0  0
   -0.9425    1.2301    0.0000 O   0  0  0  0  0  0  0  0  0  0  0  0
   -1.5967   -1.2843    0.0000 N   0  0  0  0  0  0  0  0  0  0  0  0
   -0.1450   -1.6620    0.0000 C   0  0  0  0  0  0  0  0  0  0  0  0
    0.2538   -3.1080    0.0000 C   0  0  0  0  0  0  0  0  0  0  0  0
    1.7054   -3.4857    0.0000 C   0  0  0  0  0  0  0  0  0  0  0  0
    2.1042   -4.9317    0.0000 C   0  0  0  0  0  0  0  0  0  0  0  0
    3.5559   -5.3094    0.0000 C   0  0  0  0  0  0  0  0  0  0  0  0
    1.0513   -6.0001    0.0000 C   0  0  0  0  0  0  0  0  0  0  0  0
    0.9079   -0.5936    0.0000 C   0  0  0  0  0  0  0  0  0  0  0  0
    0.5092    0.8524    0.0000 O   0  0  0  0  0  0  0  0  0  0  0  0
    2.3596   -0.9713    0.0000 N   0  0  0  0  0  0  0  0  0  0  0  0
    3.4125    0.0970    0.0000 C   0  0  0  0  0  0  0  0  0  0  0  0
    4.8642   -0.2807    0.0000 C   0  0  0  0  0  0  0  0  0  0  0  0
    5.9171    0.7877    0.0000 C   0  0  0  0  0  0  0  0  0  0  0  0
    5.6717    2.2675    0.0000 C   0  0  0  0  0  0  0  0  0  0  0  0
    7.0032    2.9581    0.0000 C   0  0  0  0  0  0  0  0  0  0  0  0
    8.0716    1.9052    0.0000 N   0  0  0  0  0  0  0  0  0  0  0  0
    7.4003    0.5638    0.0000 C   0  0  0  0  0  0  0  0  0  0  0  0
    8.0910   -0.7677    0.0000 O   0  0  0  0  0  0  0  0  0  0  0  0
    3.0138    1.5430    0.0000 C   0  0  0  0  0  0  0  0  0  0  0  0
    1.5621    1.9207    0.0000 O   0  0  0  0  0  0  0  0  0  0  0  0
    4.0667    2.6114    0.0000 C   0  0  0  0  0  0  0  0  0  0  0  0
    3.6680    4.0574    0.0000 O   0  0  0  0  0  0  0  0  0  0  0  0
  1  2  1  0
  2  3  1  0
  3  4  2  0
  3 11  1  0
  4  5  1  0
  5  6  2  0
  6  7  1  0
  7  8  1  0
  7 11  2  0
  8  9  1  0
  9 10  2  0
  9 12  1  0
 10 11  1  0
 12 13  2  0
 12 14  1  0
 14 15  1  0
 15 16  1  0
 15 21  1  0
 16 17  1  0
 17 18  1  0
 18 19  1  0
 18 20  1  0
 21 22  2  0
 21 23  1  0
 23 24  1  0
 24 25  1  0
 24 32  1  0
 25 26  1  0
 26 27  1  0
 26 30  1  0
 27 28  1  0
 28 29  1  0
 29 30  1  0
 30 31  2  0
 32 33  2  0
 32 34  1  0
 34 35  1  0
M  END
>  <s_m_entry_id>  (190) 
403

>  <s_m_entry_name>  (190) 
3C-like_protease_GHDDI_ligprep.22

>  <s_m_Source_Path>  (190) 
/home/jgilaber/drug_learning/drug_learning/datasets/SAR1/GHDDI

>  <s_m_Source_File>  (190) 
3C-like_protease_GHDDI_ligprep.sdf

>  <i_m_Source_File_Index>  (190) 
22

>  <s_m_subgroup_title>  (190) 
3C-like_protease_GHDDI_ligprep

>  <s_m_subgroupid>  (190) 
3C-like_protease_GHDDI_ligprep

>  <b_m_subgroup_collapsed>  (190) 
0

$$$$
1732
     RDKit          2D

 35 37  0  0  1  0  0  0  0  0999 V2000
   -4.1685   -4.7106    0.0000 C   0  0  0  0  0  0  0  0  0  0  0  0
   -3.2070   -3.5593    0.0000 O   0  0  0  0  0  0  0  0  0  0  0  0
   -3.7233   -2.1510    0.0000 C   0  0  0  0  0  0  0  0  0  0  0  0
   -2.7618   -0.9997    0.0000 C   0  0  0  0  0  0  0  0  0  0  0  0
   -1.2840   -1.2567    0.0000 O   0  0  0  0  0  0  0  0  0  0  0  0
   -3.2780    0.4087    0.0000 C   0  0  0  0  0  0  0  0  0  0  0  0
   -4.7558    0.6657    0.0000 C   0  0  0  0  0  0  0  0  0  0  0  0
   -5.7174   -0.4855    0.0000 C   0  0  0  0  0  0  0  0  0  0  0  0
   -5.3511   -1.9401    0.0000 C   0  0  0  0  0  0  0  0  0  0  0  0
   -6.6214   -2.7380    0.0000 C   0  0  0  0  0  0  0  0  0  0  0  0
   -7.7727   -1.7764    0.0000 N   0  0  0  0  0  0  0  0  0  0  0  0
   -7.2140   -0.3844    0.0000 C   0  0  0  0  0  0  0  0  0  0  0  0
   -8.0118    0.8859    0.0000 O   0  0  0  0  0  0  0  0  0  0  0  0
   -2.3165    1.5600    0.0000 N   0  0  0  0  0  0  0  0  0  0  0  0
   -0.8387    1.3029    0.0000 C   0  0  0  0  0  0  0  0  0  0  0  0
   -0.3224   -0.1055    0.0000 O   0  0  0  0  0  0  0  0  0  0  0  0
    0.1228    2.4542    0.0000 C   0  0  0  0  0  0  0  0  0  0  0  0
   -0.3934    3.8625    0.0000 C   0  0  0  0  0  0  0  0  0  0  0  0
   -1.8713    4.1196    0.0000 C   0  0  0  0  0  0  0  0  0  0  0  0
   -2.3875    5.5280    0.0000 C   0  0  0  0  0  0  0  0  0  0  0  0
   -2.8328    2.9683    0.0000 C   0  0  0  0  0  0  0  0  0  0  0  0
    1.6006    2.1971    0.0000 N   0  0  0  0  0  0  0  0  0  0  0  0
    2.1169    0.7888    0.0000 C   0  0  0  0  0  0  0  0  0  0  0  0
    1.1554   -0.3625    0.0000 O   0  0  0  0  0  0  0  0  0  0  0  0
    3.5947    0.5317    0.0000 C   0  0  0  0  0  0  0  0  0  0  0  0
    4.2554   -0.8150    0.0000 C   0  0  0  0  0  0  0  0  0  0  0  0
    5.7403   -0.6028    0.0000 C   0  0  0  0  0  0  0  0  0  0  0  0
    6.8916   -1.5643    0.0000 C   0  0  0  0  0  0  0  0  0  0  0  0
    6.6345   -3.0421    0.0000 O   0  0  0  0  0  0  0  0  0  0  0  0
    7.7858   -4.0037    0.0000 C   0  0  0  0  0  0  0  0  0  0  0  0
    8.2999   -1.0480    0.0000 C   0  0  0  0  0  0  0  0  0  0  0  0
    8.5570    0.4298    0.0000 C   0  0  0  0  0  0  0  0  0  0  0  0
    7.4057    1.3913    0.0000 C   0  0  0  0  0  0  0  0  0  0  0  0
    5.9974    0.8750    0.0000 C   0  0  0  0  0  0  0  0  0  0  0  0
    4.6713    1.5762    0.0000 N   0  0  0  0  0  0  0  0  0  0  0  0
  1  2  1  0
  2  3  1  0
  3  4  1  0
  4  5  2  0
  4  6  1  0
  6  7  1  0
  6 14  1  0
  7  8  1  0
  8  9  1  0
  8 12  1  0
  9 10  1  0
 10 11  1  0
 11 12  1  0
 12 13  2  0
 14 15  1  0
 15 16  2  0
 15 17  1  0
 17 18  1  0
 17 22  1  0
 18 19  1  0
 19 20  1  0
 19 21  1  0
 22 23  1  0
 23 24  2  0
 23 25  1  0
 25 26  2  0
 25 35  1  0
 26 27  1  0
 27 28  2  0
 27 34  1  0
 28 29  1  0
 28 31  1  0
 29 30  1  0
 31 32  2  0
 32 33  1  0
 33 34  2  0
 34 35  1  0
M  END
>  <s_m_entry_id>  (191) 
406

>  <s_m_entry_name>  (191) 
3C-like_protease_GHDDI_ligprep.25

>  <s_m_Source_Path>  (191) 
/home/jgilaber/drug_learning/drug_learning/datasets/SAR1/GHDDI

>  <s_m_Source_File>  (191) 
3C-like_protease_GHDDI_ligprep.sdf

>  <i_m_Source_File_Index>  (191) 
25

>  <s_m_subgroup_title>  (191) 
3C-like_protease_GHDDI_ligprep

>  <s_m_subgroupid>  (191) 
3C-like_protease_GHDDI_ligprep

>  <b_m_subgroup_collapsed>  (191) 
0

$$$$
1733
     RDKit          2D

 44 47  0  0  1  0  0  0  0  0999 V2000
  -10.5760   -0.1113    0.0000 C   0  0  0  0  0  0  0  0  0  0  0  0
   -9.0796   -0.2154    0.0000 O   0  0  0  0  0  0  0  0  0  0  0  0
   -8.2413    1.0284    0.0000 C   0  0  0  0  0  0  0  0  0  0  0  0
   -8.8993    2.3764    0.0000 C   0  0  0  0  0  0  0  0  0  0  0  0
   -8.0610    3.6202    0.0000 C   0  0  0  0  0  0  0  0  0  0  0  0
   -6.5646    3.5161    0.0000 C   0  0  0  0  0  0  0  0  0  0  0  0
   -5.9066    2.1682    0.0000 C   0  0  0  0  0  0  0  0  0  0  0  0
   -4.4645    1.7552    0.0000 N   0  0  0  0  0  0  0  0  0  0  0  0
   -4.4116    0.2562    0.0000 C   0  0  0  0  0  0  0  0  0  0  0  0
   -5.8210   -0.2574    0.0000 C   0  0  0  0  0  0  0  0  0  0  0  0
   -6.7449    0.9243    0.0000 C   0  0  0  0  0  0  0  0  0  0  0  0
   -3.1678   -0.5822    0.0000 C   0  0  0  0  0  0  0  0  0  0  0  0
   -1.8198    0.0759    0.0000 O   0  0  0  0  0  0  0  0  0  0  0  0
   -3.2719   -2.0786    0.0000 N   0  0  0  0  0  0  0  0  0  0  0  0
   -2.0280   -2.9169    0.0000 C   0  0  0  0  0  0  0  0  0  0  0  0
   -2.1321   -4.4133    0.0000 C   0  0  0  0  0  0  0  0  0  0  0  0
   -0.8883   -5.2516    0.0000 C   0  0  0  0  0  0  0  0  0  0  0  0
   -0.9924   -6.7480    0.0000 C   0  0  0  0  0  0  0  0  0  0  0  0
    0.4597   -4.5936    0.0000 C   0  0  0  0  0  0  0  0  0  0  0  0
   -0.6801   -2.2589    0.0000 C   0  0  0  0  0  0  0  0  0  0  0  0
   -0.5760   -0.7625    0.0000 O   0  0  0  0  0  0  0  0  0  0  0  0
    0.5638   -3.0972    0.0000 N   0  0  0  0  0  0  0  0  0  0  0  0
    1.9117   -2.4392    0.0000 C   0  0  0  0  0  0  0  0  0  0  0  0
    3.1556   -3.2775    0.0000 C   0  0  0  0  0  0  0  0  0  0  0  0
    4.5035   -2.6195    0.0000 C   0  0  0  0  0  0  0  0  0  0  0  0
    4.7635   -1.1422    0.0000 C   0  0  0  0  0  0  0  0  0  0  0  0
    6.2488   -0.9329    0.0000 C   0  0  0  0  0  0  0  0  0  0  0  0
    6.9069   -2.2808    0.0000 N   0  0  0  0  0  0  0  0  0  0  0  0
    5.8282   -3.3232    0.0000 C   0  0  0  0  0  0  0  0  0  0  0  0
    6.0375   -4.8085    0.0000 O   0  0  0  0  0  0  0  0  0  0  0  0
    2.0158   -0.9428    0.0000 C   0  0  0  0  0  0  0  0  0  0  0  0
    0.7720   -0.1044    0.0000 O   0  0  0  0  0  0  0  0  0  0  0  0
    3.3638   -0.2848    0.0000 C   0  0  0  0  0  0  0  0  0  0  0  0
    3.4679    1.2116    0.0000 O   0  0  0  0  0  0  0  0  0  0  0  0
    4.8158    1.8697    0.0000 C   0  0  0  0  0  0  0  0  0  0  0  0
    6.0597    1.0313    0.0000 O   0  0  0  0  0  0  0  0  0  0  0  0
    4.9199    3.3661    0.0000 C   0  0  0  0  0  0  0  0  0  0  0  0
    6.2679    4.0241    0.0000 C   0  0  0  0  0  0  0  0  0  0  0  0
    6.3720    5.5205    0.0000 C   0  0  0  0  0  0  0  0  0  0  0  0
    5.1281    6.3588    0.0000 C   0  0  0  0  0  0  0  0  0  0  0  0
    3.7802    5.7008    0.0000 C   0  0  0  0  0  0  0  0  0  0  0  0
    3.6761    4.2044    0.0000 C   0  0  0  0  0  0  0  0  0  0  0  0
    2.3281    3.5464    0.0000 C   0  0  0  0  0  0  0  0  0  0  0  0
    0.9802    2.8883    0.0000 N   0  0  0  0  0  0  0  0  0  0  0  0
  1  2  1  0
  2  3  1  0
  3  4  2  0
  3 11  1  0
  4  5  1  0
  5  6  2  0
  6  7  1  0
  7  8  1  0
  7 11  2  0
  8  9  1  0
  9 10  2  0
  9 12  1  0
 10 11  1  0
 12 13  2  0
 12 14  1  0
 14 15  1  0
 15 16  1  0
 15 20  1  0
 16 17  1  0
 17 18  1  0
 17 19  1  0
 20 21  2  0
 20 22  1  0
 22 23  1  0
 23 24  1  0
 23 31  1  0
 24 25  1  0
 25 26  1  0
 25 29  1  0
 26 27  1  0
 27 28  1  0
 28 29  1  0
 29 30  2  0
 31 32  2  0
 31 33  1  0
 33 34  1  0
 34 35  1  0
 35 36  2  0
 35 37  1  0
 37 38  2  0
 37 42  1  0
 38 39  1  0
 39 40  2  0
 40 41  1  0
 41 42  2  0
 42 43  1  0
 43 44  3  0
M  END
>  <s_m_entry_id>  (192) 
386

>  <s_m_entry_name>  (192) 
3C-like_protease_GHDDI_ligprep.5

>  <s_m_Source_Path>  (192) 
/home/jgilaber/drug_learning/drug_learning/datasets/SAR1/GHDDI

>  <s_m_Source_File>  (192) 
3C-like_protease_GHDDI_ligprep.sdf

>  <i_m_Source_File_Index>  (192) 
5

>  <s_m_subgroup_title>  (192) 
3C-like_protease_GHDDI_ligprep

>  <s_m_subgroupid>  (192) 
3C-like_protease_GHDDI_ligprep

>  <b_m_subgroup_collapsed>  (192) 
0

$$$$
1734
     RDKit          2D

 34 36  0  0  1  0  0  0  0  0999 V2000
   -9.1352   -1.8882    0.0000 C   0  0  0  0  0  0  0  0  0  0  0  0
   -7.6797   -1.5257    0.0000 O   0  0  0  0  0  0  0  0  0  0  0  0
   -7.2658   -0.0839    0.0000 C   0  0  0  0  0  0  0  0  0  0  0  0
   -8.3075    0.9954    0.0000 C   0  0  0  0  0  0  0  0  0  0  0  0
   -7.8937    2.4372    0.0000 C   0  0  0  0  0  0  0  0  0  0  0  0
   -6.4381    2.7996    0.0000 C   0  0  0  0  0  0  0  0  0  0  0  0
   -5.3964    1.7203    0.0000 C   0  0  0  0  0  0  0  0  0  0  0  0
   -3.8973    1.7723    0.0000 N   0  0  0  0  0  0  0  0  0  0  0  0
   -3.3847    0.3626    0.0000 C   0  0  0  0  0  0  0  0  0  0  0  0
   -4.5670   -0.5606    0.0000 C   0  0  0  0  0  0  0  0  0  0  0  0
   -5.8103    0.2786    0.0000 C   0  0  0  0  0  0  0  0  0  0  0  0
   -1.9429   -0.0513    0.0000 C   0  0  0  0  0  0  0  0  0  0  0  0
   -0.8636    0.9904    0.0000 O   0  0  0  0  0  0  0  0  0  0  0  0
   -1.5804   -1.5068    0.0000 N   0  0  0  0  0  0  0  0  0  0  0  0
   -0.1387   -1.9206    0.0000 C   0  0  0  0  0  0  0  0  0  0  0  0
    0.2238   -3.3762    0.0000 C   0  0  0  0  0  0  0  0  0  0  0  0
    1.6656   -3.7900    0.0000 C   0  0  0  0  0  0  0  0  0  0  0  0
    2.0281   -5.2456    0.0000 C   0  0  0  0  0  0  0  0  0  0  0  0
    2.7449   -2.7484    0.0000 C   0  0  0  0  0  0  0  0  0  0  0  0
    0.9406   -0.8790    0.0000 C   0  0  0  0  0  0  0  0  0  0  0  0
    0.5782    0.5766    0.0000 O   0  0  0  0  0  0  0  0  0  0  0  0
    2.3824   -1.2928    0.0000 N   0  0  0  0  0  0  0  0  0  0  0  0
    3.4617   -0.2511    0.0000 C   0  0  0  0  0  0  0  0  0  0  0  0
    4.9035   -0.6650    0.0000 C   0  0  0  0  0  0  0  0  0  0  0  0
    5.9828    0.3767    0.0000 C   0  0  0  0  0  0  0  0  0  0  0  0
    5.7744    1.8622    0.0000 C   0  0  0  0  0  0  0  0  0  0  0  0
    7.1228    2.5194    0.0000 C   0  0  0  0  0  0  0  0  0  0  0  0
    8.1645    1.4401    0.0000 N   0  0  0  0  0  0  0  0  0  0  0  0
    7.4599    0.1158    0.0000 C   0  0  0  0  0  0  0  0  0  0  0  0
    8.1171   -1.2325    0.0000 O   0  0  0  0  0  0  0  0  0  0  0  0
    3.0992    1.2044    0.0000 C   0  0  0  0  0  0  0  0  0  0  0  0
    1.6574    1.6183    0.0000 O   0  0  0  0  0  0  0  0  0  0  0  0
    4.1785    2.2461    0.0000 C   0  0  0  0  0  0  0  0  0  0  0  0
    3.8160    3.7017    0.0000 O   0  0  0  0  0  0  0  0  0  0  0  0
  1  2  1  0
  2  3  1  0
  3  4  2  0
  3 11  1  0
  4  5  1  0
  5  6  2  0
  6  7  1  0
  7  8  1  0
  7 11  2  0
  8  9  1  0
  9 10  2  0
  9 12  1  0
 10 11  1  0
 12 13  2  0
 12 14  1  0
 14 15  1  0
 15 16  1  0
 15 20  1  0
 16 17  1  0
 17 18  1  0
 17 19  1  0
 20 21  2  0
 20 22  1  0
 22 23  1  0
 23 24  1  0
 23 31  1  0
 24 25  1  0
 25 26  1  0
 25 29  1  0
 26 27  1  0
 27 28  1  0
 28 29  1  0
 29 30  2  0
 31 32  2  0
 31 33  1  0
 33 34  1  0
M  END
>  <s_m_entry_id>  (193) 
383

>  <s_m_entry_name>  (193) 
3C-like_protease_GHDDI_ligprep.2

>  <s_m_Source_Path>  (193) 
/home/jgilaber/drug_learning/drug_learning/datasets/SAR1/GHDDI

>  <s_m_Source_File>  (193) 
3C-like_protease_GHDDI_ligprep.sdf

>  <i_m_Source_File_Index>  (193) 
2

>  <s_m_subgroup_title>  (193) 
3C-like_protease_GHDDI_ligprep

>  <s_m_subgroupid>  (193) 
3C-like_protease_GHDDI_ligprep

>  <b_m_subgroup_collapsed>  (193) 
0

$$$$
1740
     RDKit          2D

 59 62  0  0  1  0  0  0  0  0999 V2000
   -4.8422    5.6895    0.0000 C   0  0  0  0  0  0  0  0  0  0  0  0
   -3.5854    4.8707    0.0000 C   0  0  0  0  0  0  0  0  0  0  0  0
   -2.2478    5.5497    0.0000 C   0  0  0  0  0  0  0  0  0  0  0  0
   -3.6661    3.3729    0.0000 C   0  0  0  0  0  0  0  0  0  0  0  0
   -2.4094    2.5540    0.0000 C   0  0  0  0  0  0  0  0  0  0  0  0
   -2.4901    1.0562    0.0000 N   0  0  0  0  0  0  0  0  0  0  0  0
   -3.8277    0.3772    0.0000 C   0  0  0  0  0  0  0  0  0  0  0  0
   -5.0844    1.1961    0.0000 O   0  0  0  0  0  0  0  0  0  0  0  0
   -3.9084   -1.1206    0.0000 C   0  0  0  0  0  0  0  0  0  0  0  0
   -2.6516   -1.9395    0.0000 N   0  0  0  0  0  0  0  0  0  0  0  0
   -2.7324   -3.4373    0.0000 C   0  0  0  0  0  0  0  0  0  0  0  0
   -4.0699   -4.1163    0.0000 O   0  0  0  0  0  0  0  0  0  0  0  0
   -1.4756   -4.2561    0.0000 C   0  0  0  0  0  0  0  0  0  0  0  0
   -0.1381   -3.5772    0.0000 N   0  0  0  0  0  0  0  0  0  0  0  0
    1.1187   -4.3960    0.0000 C   0  0  0  0  0  0  0  0  0  0  0  0
    1.0379   -5.8938    0.0000 O   0  0  0  0  0  0  0  0  0  0  0  0
    2.4562   -3.7170    0.0000 C   0  0  0  0  0  0  0  0  0  0  0  0
   -1.5564   -5.7540    0.0000 C   0  0  0  0  0  0  0  0  0  0  0  0
   -0.2996   -6.5728    0.0000 C   0  0  0  0  0  0  0  0  0  0  0  0
   -2.8939   -6.4329    0.0000 C   0  0  0  0  0  0  0  0  0  0  0  0
   -5.2460   -1.7996    0.0000 C   0  0  0  0  0  0  0  0  0  0  0  0
   -5.3267   -3.2974    0.0000 C   0  0  0  0  0  0  0  0  0  0  0  0
   -6.5027   -0.9807    0.0000 O   0  0  0  0  0  0  0  0  0  0  0  0
   -7.8403   -1.6597    0.0000 C   0  0  0  0  0  0  0  0  0  0  0  0
   -9.0970   -0.8408    0.0000 C   0  0  0  0  0  0  0  0  0  0  0  0
   -9.0163    0.6570    0.0000 C   0  0  0  0  0  0  0  0  0  0  0  0
  -10.2731    1.4758    0.0000 C   0  0  0  0  0  0  0  0  0  0  0  0
  -11.6106    0.7969    0.0000 C   0  0  0  0  0  0  0  0  0  0  0  0
  -11.6913   -0.7010    0.0000 C   0  0  0  0  0  0  0  0  0  0  0  0
  -10.4346   -1.5198    0.0000 C   0  0  0  0  0  0  0  0  0  0  0  0
   -1.0718    3.2330    0.0000 C   0  0  0  0  0  0  0  0  0  0  0  0
   -0.9911    4.7308    0.0000 O   0  0  0  0  0  0  0  0  0  0  0  0
    0.1849    2.4141    0.0000 N   0  0  0  0  0  0  0  0  0  0  0  0
    1.5225    3.0931    0.0000 C   0  0  0  0  0  0  0  0  0  0  0  0
    1.6032    4.5909    0.0000 C   0  0  0  0  0  0  0  0  0  0  0  0
    2.9408    5.2699    0.0000 C   0  0  0  0  0  0  0  0  0  0  0  0
    4.2763    4.5869    0.0000 C   0  0  0  0  0  0  0  0  0  0  0  0
    5.3385    5.6460    0.0000 C   0  0  0  0  0  0  0  0  0  0  0  0
    4.6595    6.9835    0.0000 N   0  0  0  0  0  0  0  0  0  0  0  0
    3.1777    6.7511    0.0000 C   0  0  0  0  0  0  0  0  0  0  0  0
    2.1186    7.8133    0.0000 O   0  0  0  0  0  0  0  0  0  0  0  0
    2.7792    2.2743    0.0000 C   0  0  0  0  0  0  0  0  0  0  0  0
    4.1168    2.9532    0.0000 O   0  0  0  0  0  0  0  0  0  0  0  0
    2.6985    0.7764    0.0000 C   0  0  0  0  0  0  0  0  0  0  0  0
    3.9553   -0.0424    0.0000 N   0  0  0  0  0  0  0  0  0  0  0  0
    5.2928    0.6365    0.0000 N   0  0  0  0  0  0  0  0  0  0  0  0
    6.5496   -0.1823    0.0000 C   0  0  0  0  0  0  0  0  0  0  0  0
    7.8871    0.4967    0.0000 O   0  0  0  0  0  0  0  0  0  0  0  0
    6.4688   -1.6801    0.0000 C   0  0  0  0  0  0  0  0  0  0  0  0
    5.1313   -2.3591    0.0000 C   0  0  0  0  0  0  0  0  0  0  0  0
    5.0505   -3.8569    0.0000 C   0  0  0  0  0  0  0  0  0  0  0  0
    6.3073   -4.6758    0.0000 C   0  0  0  0  0  0  0  0  0  0  0  0
    7.6448   -3.9968    0.0000 C   0  0  0  0  0  0  0  0  0  0  0  0
    7.7256   -2.4990    0.0000 C   0  0  0  0  0  0  0  0  0  0  0  0
    9.0631   -1.8200    0.0000 N   0  0  0  0  0  0  0  0  0  0  0  0
    9.1439   -0.3222    0.0000 O   0  0  0  0  0  0  0  0  0  0  0  0
   10.3199   -2.6389    0.0000 O   0  0  0  0  0  0  0  0  0  0  0  0
    3.8745   -1.5403    0.0000 C   0  0  0  0  0  0  0  0  0  0  0  0
    2.5370   -2.2192    0.0000 O   0  0  0  0  0  0  0  0  0  0  0  0
  1  2  1  0
  2  3  1  0
  2  4  1  0
  4  5  1  0
  5  6  1  0
  5 31  1  0
  6  7  1  0
  7  8  2  0
  7  9  1  0
  9 10  1  0
  9 21  1  0
 10 11  1  0
 11 12  2  0
 11 13  1  0
 13 14  1  0
 13 18  1  0
 14 15  1  0
 15 16  2  0
 15 17  1  0
 18 19  1  0
 18 20  1  0
 21 22  1  0
 21 23  1  0
 23 24  1  0
 24 25  1  0
 25 26  2  0
 25 30  1  0
 26 27  1  0
 27 28  2  0
 28 29  1  0
 29 30  2  0
 31 32  2  0
 31 33  1  0
 33 34  1  0
 34 35  1  0
 34 42  1  0
 35 36  1  0
 36 37  1  0
 36 40  1  0
 37 38  1  0
 38 39  1  0
 39 40  1  0
 40 41  2  0
 42 43  2  0
 42 44  1  0
 44 45  1  0
 45 46  1  0
 45 58  1  0
 46 47  1  0
 47 48  2  0
 47 49  1  0
 49 50  2  0
 49 54  1  0
 50 51  1  0
 50 58  1  0
 51 52  2  0
 52 53  1  0
 53 54  2  0
 54 55  1  0
 55 56  2  0
 55 57  1  0
 58 59  2  0
M  CHG  2  55   1  57  -1
M  END
>  <s_m_entry_id>  (194) 
494

>  <s_m_entry_name>  (194) 
3C-like_protease_GHDDI_ligprep.113

>  <s_m_Source_Path>  (194) 
/home/jgilaber/drug_learning/drug_learning/datasets/SAR1/GHDDI

>  <s_m_Source_File>  (194) 
3C-like_protease_GHDDI_ligprep.sdf

>  <i_m_Source_File_Index>  (194) 
113

>  <s_m_subgroup_title>  (194) 
3C-like_protease_GHDDI_ligprep

>  <s_m_subgroupid>  (194) 
3C-like_protease_GHDDI_ligprep

>  <b_m_subgroup_collapsed>  (194) 
0

$$$$
1745
     RDKit          2D

 21 23  0  0  1  0  0  0  0  0999 V2000
   -5.5348    0.6173    0.0000 C   0  0  0  0  0  0  0  0  0  0  0  0
   -4.5684   -0.5299    0.0000 C   0  0  0  0  0  0  0  0  0  0  0  0
   -5.0787   -1.9404    0.0000 C   0  0  0  0  0  0  0  0  0  0  0  0
   -3.0917   -0.2665    0.0000 C   0  0  0  0  0  0  0  0  0  0  0  0
   -2.1253   -1.4137    0.0000 C   0  0  0  0  0  0  0  0  0  0  0  0
   -0.6485   -1.1504    0.0000 C   0  0  0  0  0  0  0  0  0  0  0  0
    0.3179   -2.2976    0.0000 C   0  0  0  0  0  0  0  0  0  0  0  0
    1.7946   -2.0343    0.0000 C   0  0  0  0  0  0  0  0  0  0  0  0
    2.3049   -0.6237    0.0000 C   0  0  0  0  0  0  0  0  0  0  0  0
    3.7816   -0.3604    0.0000 C   0  0  0  0  0  0  0  0  0  0  0  0
    5.2593   -0.6180    0.0000 C   0  0  0  0  0  0  0  0  0  0  0  0
    3.7845   -1.8604    0.0000 C   0  0  0  0  0  0  0  0  0  0  0  0
    4.2919    1.0501    0.0000 C   0  0  0  0  0  0  0  0  0  0  0  0
    3.3255    2.1973    0.0000 C   0  0  0  0  0  0  0  0  0  0  0  0
    1.8488    1.9340    0.0000 C   0  0  0  0  0  0  0  0  0  0  0  0
    1.3385    0.5235    0.0000 C   0  0  0  0  0  0  0  0  0  0  0  0
    0.3721    1.6706    0.0000 C   0  0  0  0  0  0  0  0  0  0  0  0
   -0.1382    0.2601    0.0000 C   0  0  0  0  0  0  0  0  0  0  0  0
   -1.1046    1.4073    0.0000 C   0  0  0  0  0  0  0  0  0  0  0  0
   -2.5814    1.1440    0.0000 C   0  0  0  0  0  0  0  0  0  0  0  0
   -3.5478    2.2912    0.0000 O   0  0  0  0  0  0  0  0  0  0  0  0
  1  2  1  0
  2  3  1  0
  2  4  1  0
  4  5  2  0
  4 20  1  0
  5  6  1  0
  6  7  1  0
  6 18  2  0
  7  8  1  0
  8  9  1  0
  9 10  1  0
  9 16  1  0
 10 11  1  0
 10 12  1  0
 10 13  1  0
 13 14  1  0
 14 15  1  0
 15 16  1  0
 16 17  1  0
 16 18  1  0
 18 19  1  0
 19 20  2  0
 20 21  1  0
M  END
>  <s_m_entry_id>  (195) 
893

>  <s_m_entry_name>  (195) 
3C-like_protease_GHDDI_ligprep.512

>  <s_m_Source_Path>  (195) 
/home/jgilaber/drug_learning/drug_learning/datasets/SAR1/GHDDI

>  <s_m_Source_File>  (195) 
3C-like_protease_GHDDI_ligprep.sdf

>  <i_m_Source_File_Index>  (195) 
512

>  <s_m_subgroup_title>  (195) 
3C-like_protease_GHDDI_ligprep

>  <s_m_subgroupid>  (195) 
3C-like_protease_GHDDI_ligprep

>  <b_m_subgroup_collapsed>  (195) 
0

$$$$
9698
     RDKit          2D

 22 24  0  0  1  0  0  0  0  0999 V2000
   -6.7653    1.9303    0.0000 C   0  0  0  0  0  0  0  0  0  0  0  0
   -6.1849    0.5472    0.0000 O   0  0  0  0  0  0  0  0  0  0  0  0
   -4.6968    0.3583    0.0000 C   0  0  0  0  0  0  0  0  0  0  0  0
   -3.7892    1.5525    0.0000 C   0  0  0  0  0  0  0  0  0  0  0  0
   -2.3011    1.3635    0.0000 C   0  0  0  0  0  0  0  0  0  0  0  0
   -1.7207   -0.0196    0.0000 C   0  0  0  0  0  0  0  0  0  0  0  0
   -2.6284   -1.2138    0.0000 C   0  0  0  0  0  0  0  0  0  0  0  0
   -4.1164   -1.0249    0.0000 C   0  0  0  0  0  0  0  0  0  0  0  0
   -5.0241   -2.2191    0.0000 O   0  0  0  0  0  0  0  0  0  0  0  0
   -0.2327   -0.2085    0.0000 C   0  0  0  0  0  0  0  0  0  0  0  0
    0.3477   -1.5917    0.0000 C   0  0  0  0  0  0  0  0  0  0  0  0
    1.8358   -1.7806    0.0000 C   0  0  0  0  0  0  0  0  0  0  0  0
    2.4162   -3.1638    0.0000 O   0  0  0  0  0  0  0  0  0  0  0  0
    2.7434   -0.5864    0.0000 C   0  0  0  0  0  0  0  0  0  0  0  0
    4.2315   -0.7753    0.0000 C   0  0  0  0  0  0  0  0  0  0  0  0
    4.8119   -2.1585    0.0000 O   0  0  0  0  0  0  0  0  0  0  0  0
    5.1391    0.4189    0.0000 C   0  0  0  0  0  0  0  0  0  0  0  0
    4.5587    1.8020    0.0000 C   0  0  0  0  0  0  0  0  0  0  0  0
    5.4664    2.9963    0.0000 O   0  0  0  0  0  0  0  0  0  0  0  0
    3.0707    1.9910    0.0000 C   0  0  0  0  0  0  0  0  0  0  0  0
    2.1630    0.7967    0.0000 C   0  0  0  0  0  0  0  0  0  0  0  0
    0.6750    0.9857    0.0000 O   0  0  0  0  0  0  0  0  0  0  0  0
  1  2  1  0
  2  3  1  0
  3  4  2  0
  3  8  1  0
  4  5  1  0
  5  6  2  0
  6  7  1  0
  6 10  1  0
  7  8  2  0
  8  9  1  0
 10 11  1  0
 10 22  1  0
 11 12  1  0
 12 13  2  0
 12 14  1  0
 14 15  2  0
 14 21  1  0
 15 16  1  0
 15 17  1  0
 17 18  2  0
 18 19  1  0
 18 20  1  0
 20 21  2  0
 21 22  1  0
M  END
>  <s_m_entry_id>  (196) 
755

>  <s_m_entry_name>  (196) 
3C-like_protease_GHDDI_ligprep.374

>  <s_m_Source_Path>  (196) 
/home/jgilaber/drug_learning/drug_learning/datasets/SAR1/GHDDI

>  <s_m_Source_File>  (196) 
3C-like_protease_GHDDI_ligprep.sdf

>  <i_m_Source_File_Index>  (196) 
374

>  <s_m_subgroup_title>  (196) 
3C-like_protease_GHDDI_ligprep

>  <s_m_subgroupid>  (196) 
3C-like_protease_GHDDI_ligprep

>  <b_m_subgroup_collapsed>  (196) 
0

$$$$
9738
     RDKit          2D

 34 37  0  0  1  0  0  0  0  0999 V2000
   -4.9512   -3.0892    0.0000 C   0  0  0  0  0  0  0  0  0  0  0  0
   -3.6794   -3.8845    0.0000 C   0  0  0  0  0  0  0  0  0  0  0  0
   -2.4076   -4.6798    0.0000 C   0  0  0  0  0  0  0  0  0  0  0  0
   -4.4747   -5.1563    0.0000 C   0  0  0  0  0  0  0  0  0  0  0  0
   -2.8841   -2.6127    0.0000 C   0  0  0  0  0  0  0  0  0  0  0  0
   -3.5879   -1.2880    0.0000 C   0  0  0  0  0  0  0  0  0  0  0  0
   -2.7926   -0.0162    0.0000 C   0  0  0  0  0  0  0  0  0  0  0  0
   -1.2935   -0.0691    0.0000 C   0  0  0  0  0  0  0  0  0  0  0  0
   -0.5898   -1.3937    0.0000 C   0  0  0  0  0  0  0  0  0  0  0  0
   -1.3851   -2.6656    0.0000 C   0  0  0  0  0  0  0  0  0  0  0  0
   -0.4982    1.2027    0.0000 N   0  0  0  0  0  0  0  0  0  0  0  0
    1.0008    1.1499    0.0000 C   0  0  0  0  0  0  0  0  0  0  0  0
    1.7046   -0.1748    0.0000 C   0  0  0  0  0  0  0  0  0  0  0  0
    0.9093   -1.4466    0.0000 O   0  0  0  0  0  0  0  0  0  0  0  0
    3.2037   -0.2276    0.0000 N   0  0  0  0  0  0  0  0  0  0  0  0
    3.9074   -1.5523    0.0000 C   0  0  0  0  0  0  0  0  0  0  0  0
    3.1121   -2.8241    0.0000 C   0  0  0  0  0  0  0  0  0  0  0  0
    3.8159   -4.1488    0.0000 C   0  0  0  0  0  0  0  0  0  0  0  0
    5.3150   -4.2016    0.0000 C   0  0  0  0  0  0  0  0  0  0  0  0
    6.1103   -2.9298    0.0000 C   0  0  0  0  0  0  0  0  0  0  0  0
    5.4065   -1.6051    0.0000 C   0  0  0  0  0  0  0  0  0  0  0  0
    1.7961    2.4217    0.0000 C   0  0  0  0  0  0  0  0  0  0  0  0
    3.2952    2.3688    0.0000 C   0  0  0  0  0  0  0  0  0  0  0  0
    4.0905    3.6406    0.0000 C   0  0  0  0  0  0  0  0  0  0  0  0
    3.3867    4.9653    0.0000 C   0  0  0  0  0  0  0  0  0  0  0  0
    1.8877    5.0181    0.0000 N   0  0  0  0  0  0  0  0  0  0  0  0
    1.0924    3.7463    0.0000 C   0  0  0  0  0  0  0  0  0  0  0  0
   -1.2020    2.5274    0.0000 C   0  0  0  0  0  0  0  0  0  0  0  0
   -0.4067    3.7992    0.0000 O   0  0  0  0  0  0  0  0  0  0  0  0
   -2.7011    2.5802    0.0000 C   0  0  0  0  0  0  0  0  0  0  0  0
   -3.5394    3.8241    0.0000 C   0  0  0  0  0  0  0  0  0  0  0  0
   -4.9815    3.4111    0.0000 N   0  0  0  0  0  0  0  0  0  0  0  0
   -5.0343    1.9120    0.0000 C   0  0  0  0  0  0  0  0  0  0  0  0
   -3.6250    1.3985    0.0000 N   0  0  0  0  0  0  0  0  0  0  0  0
  1  2  1  0
  2  3  1  0
  2  4  1  0
  2  5  1  0
  5  6  2  0
  5 10  1  0
  6  7  1  0
  7  8  2  0
  8  9  1  0
  8 11  1  0
  9 10  2  0
 11 12  1  0
 11 28  1  0
 12 13  1  0
 12 22  1  0
 13 14  2  0
 13 15  1  0
 15 16  1  0
 16 17  1  0
 16 21  1  0
 17 18  1  0
 18 19  1  0
 19 20  1  0
 20 21  1  0
 22 23  2  0
 22 27  1  0
 23 24  1  0
 24 25  2  0
 25 26  1  0
 26 27  2  0
 28 29  2  0
 28 30  1  0
 30 31  2  0
 30 34  1  0
 31 32  1  0
 32 33  2  0
 33 34  1  0
M  END
>  <s_m_entry_id>  (197) 
555

>  <s_m_entry_name>  (197) 
3C-like_protease_GHDDI_ligprep.174

>  <s_m_Source_Path>  (197) 
/home/jgilaber/drug_learning/drug_learning/datasets/SAR1/GHDDI

>  <s_m_Source_File>  (197) 
3C-like_protease_GHDDI_ligprep.sdf

>  <i_m_Source_File_Index>  (197) 
174

>  <s_m_subgroup_title>  (197) 
3C-like_protease_GHDDI_ligprep

>  <s_m_subgroupid>  (197) 
3C-like_protease_GHDDI_ligprep

>  <b_m_subgroup_collapsed>  (197) 
0

$$$$
9739
     RDKit          2D

 32 34  0  0  1  0  0  0  0  0999 V2000
   -7.9533   -0.6293    0.0000 C   0  0  0  0  0  0  0  0  0  0  0  0
   -6.6287    0.0746    0.0000 C   0  0  0  0  0  0  0  0  0  0  0  0
   -6.5761    1.5737    0.0000 C   0  0  0  0  0  0  0  0  0  0  0  0
   -5.3568   -0.7205    0.0000 C   0  0  0  0  0  0  0  0  0  0  0  0
   -4.0322   -0.0166    0.0000 N   0  0  0  0  0  0  0  0  0  0  0  0
   -2.7603   -0.8117    0.0000 C   0  0  0  0  0  0  0  0  0  0  0  0
   -2.8130   -2.3108    0.0000 O   0  0  0  0  0  0  0  0  0  0  0  0
   -1.4358   -0.1078    0.0000 C   0  0  0  0  0  0  0  0  0  0  0  0
   -0.1639   -0.9029    0.0000 N   0  0  0  0  0  0  0  0  0  0  0  0
   -0.2165   -2.4020    0.0000 C   0  0  0  0  0  0  0  0  0  0  0  0
   -1.5411   -3.1059    0.0000 O   0  0  0  0  0  0  0  0  0  0  0  0
    1.0554   -3.1971    0.0000 C   0  0  0  0  0  0  0  0  0  0  0  0
    2.4463   -2.6355    0.0000 C   0  0  0  0  0  0  0  0  0  0  0  0
    3.4102   -3.7848    0.0000 N   0  0  0  0  0  0  0  0  0  0  0  0
    2.6151   -5.0567    0.0000 C   0  0  0  0  0  0  0  0  0  0  0  0
    1.1597   -4.6935    0.0000 N   0  0  0  0  0  0  0  0  0  0  0  0
    1.1607   -0.1990    0.0000 C   0  0  0  0  0  0  0  0  0  0  0  0
    2.4326   -0.9941    0.0000 C   0  0  0  0  0  0  0  0  0  0  0  0
    3.7572   -0.2902    0.0000 C   0  0  0  0  0  0  0  0  0  0  0  0
    3.8098    1.2089    0.0000 C   0  0  0  0  0  0  0  0  0  0  0  0
    2.5379    2.0040    0.0000 C   0  0  0  0  0  0  0  0  0  0  0  0
    1.2134    1.3001    0.0000 C   0  0  0  0  0  0  0  0  0  0  0  0
    5.1344    1.9128    0.0000 C   0  0  0  0  0  0  0  0  0  0  0  0
    5.8383    0.5882    0.0000 C   0  0  0  0  0  0  0  0  0  0  0  0
    4.4305    3.2374    0.0000 C   0  0  0  0  0  0  0  0  0  0  0  0
    6.4590    2.6167    0.0000 C   0  0  0  0  0  0  0  0  0  0  0  0
   -1.3831    1.3913    0.0000 C   0  0  0  0  0  0  0  0  0  0  0  0
   -2.6550    2.1864    0.0000 C   0  0  0  0  0  0  0  0  0  0  0  0
   -2.6024    3.6855    0.0000 C   0  0  0  0  0  0  0  0  0  0  0  0
   -1.2778    4.3894    0.0000 C   0  0  0  0  0  0  0  0  0  0  0  0
   -0.0059    3.5943    0.0000 N   0  0  0  0  0  0  0  0  0  0  0  0
   -0.0586    2.0952    0.0000 C   0  0  0  0  0  0  0  0  0  0  0  0
  1  2  1  0
  2  3  1  0
  2  4  1  0
  4  5  1  0
  5  6  1  0
  6  7  2  0
  6  8  1  0
  8  9  1  0
  8 27  1  0
  9 10  1  0
  9 17  1  0
 10 11  2  0
 10 12  1  0
 12 13  2  0
 12 16  1  0
 13 14  1  0
 14 15  2  0
 15 16  1  0
 17 18  2  0
 17 22  1  0
 18 19  1  0
 19 20  2  0
 20 21  1  0
 20 23  1  0
 21 22  2  0
 23 24  1  0
 23 25  1  0
 23 26  1  0
 27 28  2  0
 27 32  1  0
 28 29  1  0
 29 30  2  0
 30 31  1  0
 31 32  2  0
M  END
>  <s_m_entry_id>  (198) 
655

>  <s_m_entry_name>  (198) 
3C-like_protease_GHDDI_ligprep.274

>  <s_m_Source_Path>  (198) 
/home/jgilaber/drug_learning/drug_learning/datasets/SAR1/GHDDI

>  <s_m_Source_File>  (198) 
3C-like_protease_GHDDI_ligprep.sdf

>  <i_m_Source_File_Index>  (198) 
274

>  <s_m_subgroup_title>  (198) 
3C-like_protease_GHDDI_ligprep

>  <s_m_subgroupid>  (198) 
3C-like_protease_GHDDI_ligprep

>  <b_m_subgroup_collapsed>  (198) 
0

$$$$
9740
     RDKit          2D

 33 35  0  0  1  0  0  0  0  0999 V2000
   -7.2209   -1.2121    0.0000 C   0  0  0  0  0  0  0  0  0  0  0  0
   -6.4280    0.0612    0.0000 C   0  0  0  0  0  0  0  0  0  0  0  0
   -5.6350    1.3345    0.0000 C   0  0  0  0  0  0  0  0  0  0  0  0
   -7.7013    0.8541    0.0000 C   0  0  0  0  0  0  0  0  0  0  0  0
   -5.1547   -0.7317    0.0000 C   0  0  0  0  0  0  0  0  0  0  0  0
   -3.8313   -0.0255    0.0000 N   0  0  0  0  0  0  0  0  0  0  0  0
   -2.5581   -0.8184    0.0000 C   0  0  0  0  0  0  0  0  0  0  0  0
   -2.6081   -2.3176    0.0000 O   0  0  0  0  0  0  0  0  0  0  0  0
   -1.2347   -0.1122    0.0000 C   0  0  0  0  0  0  0  0  0  0  0  0
    0.0386   -0.9051    0.0000 N   0  0  0  0  0  0  0  0  0  0  0  0
   -0.0115   -2.4043    0.0000 C   0  0  0  0  0  0  0  0  0  0  0  0
   -1.3348   -3.1105    0.0000 O   0  0  0  0  0  0  0  0  0  0  0  0
    1.2618   -3.1972    0.0000 C   0  0  0  0  0  0  0  0  0  0  0  0
    2.6517   -2.6332    0.0000 C   0  0  0  0  0  0  0  0  0  0  0  0
    3.6177   -3.7808    0.0000 N   0  0  0  0  0  0  0  0  0  0  0  0
    2.8247   -5.0541    0.0000 C   0  0  0  0  0  0  0  0  0  0  0  0
    1.3687   -4.6934    0.0000 N   0  0  0  0  0  0  0  0  0  0  0  0
    1.3619   -0.1989    0.0000 C   0  0  0  0  0  0  0  0  0  0  0  0
    2.6352   -0.9918    0.0000 C   0  0  0  0  0  0  0  0  0  0  0  0
    3.9585   -0.2856    0.0000 C   0  0  0  0  0  0  0  0  0  0  0  0
    4.0086    1.2136    0.0000 C   0  0  0  0  0  0  0  0  0  0  0  0
    2.7353    2.0065    0.0000 C   0  0  0  0  0  0  0  0  0  0  0  0
    1.4120    1.3003    0.0000 C   0  0  0  0  0  0  0  0  0  0  0  0
    5.3319    1.9198    0.0000 C   0  0  0  0  0  0  0  0  0  0  0  0
    6.0382    0.5965    0.0000 C   0  0  0  0  0  0  0  0  0  0  0  0
    4.6257    3.2431    0.0000 C   0  0  0  0  0  0  0  0  0  0  0  0
    6.6553    2.6260    0.0000 C   0  0  0  0  0  0  0  0  0  0  0  0
   -1.1847    1.3870    0.0000 C   0  0  0  0  0  0  0  0  0  0  0  0
   -2.4579    2.1799    0.0000 C   0  0  0  0  0  0  0  0  0  0  0  0
   -2.4079    3.6791    0.0000 C   0  0  0  0  0  0  0  0  0  0  0  0
   -1.0845    4.3853    0.0000 C   0  0  0  0  0  0  0  0  0  0  0  0
    0.1887    3.5924    0.0000 N   0  0  0  0  0  0  0  0  0  0  0  0
    0.1387    2.0932    0.0000 C   0  0  0  0  0  0  0  0  0  0  0  0
  1  2  1  0
  2  3  1  0
  2  4  1  0
  2  5  1  0
  5  6  1  0
  6  7  1  0
  7  8  2  0
  7  9  1  0
  9 10  1  0
  9 28  1  0
 10 11  1  0
 10 18  1  0
 11 12  2  0
 11 13  1  0
 13 14  2  0
 13 17  1  0
 14 15  1  0
 15 16  2  0
 16 17  1  0
 18 19  2  0
 18 23  1  0
 19 20  1  0
 20 21  2  0
 21 22  1  0
 21 24  1  0
 22 23  2  0
 24 25  1  0
 24 26  1  0
 24 27  1  0
 28 29  2  0
 28 33  1  0
 29 30  1  0
 30 31  2  0
 31 32  1  0
 32 33  2  0
M  END
>  <s_m_entry_id>  (199) 
625

>  <s_m_entry_name>  (199) 
3C-like_protease_GHDDI_ligprep.244

>  <s_m_Source_Path>  (199) 
/home/jgilaber/drug_learning/drug_learning/datasets/SAR1/GHDDI

>  <s_m_Source_File>  (199) 
3C-like_protease_GHDDI_ligprep.sdf

>  <i_m_Source_File_Index>  (199) 
244

>  <s_m_subgroup_title>  (199) 
3C-like_protease_GHDDI_ligprep

>  <s_m_subgroupid>  (199) 
3C-like_protease_GHDDI_ligprep

>  <b_m_subgroup_collapsed>  (199) 
0

$$$$
9741
     RDKit          2D

 33 36  0  0  1  0  0  0  0  0999 V2000
   -5.4809   -1.7996    0.0000 C   0  0  0  0  0  0  0  0  0  0  0  0
   -4.4696   -2.9074    0.0000 C   0  0  0  0  0  0  0  0  0  0  0  0
   -3.4583   -4.0153    0.0000 C   0  0  0  0  0  0  0  0  0  0  0  0
   -5.5774   -3.9187    0.0000 C   0  0  0  0  0  0  0  0  0  0  0  0
   -3.3618   -1.8961    0.0000 C   0  0  0  0  0  0  0  0  0  0  0  0
   -3.6836   -0.4311    0.0000 C   0  0  0  0  0  0  0  0  0  0  0  0
   -2.5758    0.5802    0.0000 C   0  0  0  0  0  0  0  0  0  0  0  0
   -1.1461    0.1264    0.0000 C   0  0  0  0  0  0  0  0  0  0  0  0
   -0.8242   -1.3386    0.0000 C   0  0  0  0  0  0  0  0  0  0  0  0
   -1.9320   -2.3499    0.0000 C   0  0  0  0  0  0  0  0  0  0  0  0
   -0.0382    1.1377    0.0000 N   0  0  0  0  0  0  0  0  0  0  0  0
    1.3915    0.6839    0.0000 C   0  0  0  0  0  0  0  0  0  0  0  0
    1.7134   -0.7811    0.0000 C   0  0  0  0  0  0  0  0  0  0  0  0
    0.6055   -1.7924    0.0000 O   0  0  0  0  0  0  0  0  0  0  0  0
    3.1431   -1.2349    0.0000 N   0  0  0  0  0  0  0  0  0  0  0  0
    3.4649   -2.7000    0.0000 C   0  0  0  0  0  0  0  0  0  0  0  0
    4.8394   -3.3007    0.0000 C   0  0  0  0  0  0  0  0  0  0  0  0
    4.6928   -4.7936    0.0000 C   0  0  0  0  0  0  0  0  0  0  0  0
    3.2277   -5.1154    0.0000 C   0  0  0  0  0  0  0  0  0  0  0  0
    2.4689   -3.8215    0.0000 C   0  0  0  0  0  0  0  0  0  0  0  0
    2.4993    1.6952    0.0000 C   0  0  0  0  0  0  0  0  0  0  0  0
    3.9290    1.2414    0.0000 C   0  0  0  0  0  0  0  0  0  0  0  0
    5.0369    2.2527    0.0000 C   0  0  0  0  0  0  0  0  0  0  0  0
    4.7150    3.7177    0.0000 C   0  0  0  0  0  0  0  0  0  0  0  0
    3.2853    4.1715    0.0000 N   0  0  0  0  0  0  0  0  0  0  0  0
    2.1775    3.1602    0.0000 C   0  0  0  0  0  0  0  0  0  0  0  0
   -0.3601    2.6028    0.0000 C   0  0  0  0  0  0  0  0  0  0  0  0
    0.7477    3.6140    0.0000 O   0  0  0  0  0  0  0  0  0  0  0  0
   -1.7898    3.0565    0.0000 C   0  0  0  0  0  0  0  0  0  0  0  0
   -2.2631    4.4799    0.0000 C   0  0  0  0  0  0  0  0  0  0  0  0
   -3.7630    4.4697    0.0000 N   0  0  0  0  0  0  0  0  0  0  0  0
   -4.2168    3.0400    0.0000 C   0  0  0  0  0  0  0  0  0  0  0  0
   -2.9973    2.1666    0.0000 N   0  0  0  0  0  0  0  0  0  0  0  0
  1  2  1  0
  2  3  1  0
  2  4  1  0
  2  5  1  0
  5  6  2  0
  5 10  1  0
  6  7  1  0
  7  8  2  0
  8  9  1  0
  8 11  1  0
  9 10  2  0
 11 12  1  0
 11 27  1  0
 12 13  1  0
 12 21  1  0
 13 14  2  0
 13 15  1  0
 15 16  1  0
 16 17  1  0
 16 20  1  0
 17 18  1  0
 18 19  1  0
 19 20  1  0
 21 22  2  0
 21 26  1  0
 22 23  1  0
 23 24  2  0
 24 25  1  0
 25 26  2  0
 27 28  2  0
 27 29  1  0
 29 30  2  0
 29 33  1  0
 30 31  1  0
 31 32  2  0
 32 33  1  0
M  END
>  <s_m_entry_id>  (200) 
550

>  <s_m_entry_name>  (200) 
3C-like_protease_GHDDI_ligprep.169

>  <s_m_Source_Path>  (200) 
/home/jgilaber/drug_learning/drug_learning/datasets/SAR1/GHDDI

>  <s_m_Source_File>  (200) 
3C-like_protease_GHDDI_ligprep.sdf

>  <i_m_Source_File_Index>  (200) 
169

>  <s_m_subgroup_title>  (200) 
3C-like_protease_GHDDI_ligprep

>  <s_m_subgroupid>  (200) 
3C-like_protease_GHDDI_ligprep

>  <b_m_subgroup_collapsed>  (200) 
0

$$$$
9742
     RDKit          2D

 35 38  0  0  1  0  0  0  0  0999 V2000
   -5.4789   -3.2155    0.0000 C   0  0  0  0  0  0  0  0  0  0  0  0
   -4.2127   -4.0197    0.0000 C   0  0  0  0  0  0  0  0  0  0  0  0
   -2.9465   -4.8239    0.0000 C   0  0  0  0  0  0  0  0  0  0  0  0
   -5.0169   -5.2859    0.0000 C   0  0  0  0  0  0  0  0  0  0  0  0
   -3.4085   -2.7535    0.0000 C   0  0  0  0  0  0  0  0  0  0  0  0
   -4.1029   -1.4239    0.0000 C   0  0  0  0  0  0  0  0  0  0  0  0
   -3.2988   -0.1577    0.0000 C   0  0  0  0  0  0  0  0  0  0  0  0
   -1.8001   -0.2211    0.0000 C   0  0  0  0  0  0  0  0  0  0  0  0
   -1.1056   -1.5506    0.0000 C   0  0  0  0  0  0  0  0  0  0  0  0
   -1.9098   -2.8168    0.0000 C   0  0  0  0  0  0  0  0  0  0  0  0
   -0.9959    1.0451    0.0000 N   0  0  0  0  0  0  0  0  0  0  0  0
    0.5028    0.9818    0.0000 C   0  0  0  0  0  0  0  0  0  0  0  0
    1.1972   -0.3478    0.0000 C   0  0  0  0  0  0  0  0  0  0  0  0
    0.3930   -1.6140    0.0000 O   0  0  0  0  0  0  0  0  0  0  0  0
    2.6959   -0.4112    0.0000 N   0  0  0  0  0  0  0  0  0  0  0  0
    3.3904   -1.7407    0.0000 C   0  0  0  0  0  0  0  0  0  0  0  0
    4.8890   -1.8041    0.0000 C   0  0  0  0  0  0  0  0  0  0  0  0
    5.5835   -3.1336    0.0000 C   0  0  0  0  0  0  0  0  0  0  0  0
    7.0821   -3.1970    0.0000 C   0  0  0  0  0  0  0  0  0  0  0  0
    7.8863   -1.9308    0.0000 C   0  0  0  0  0  0  0  0  0  0  0  0
    7.1919   -0.6012    0.0000 C   0  0  0  0  0  0  0  0  0  0  0  0
    5.6932   -0.5379    0.0000 C   0  0  0  0  0  0  0  0  0  0  0  0
    1.3070    2.2480    0.0000 C   0  0  0  0  0  0  0  0  0  0  0  0
    2.8056    2.1846    0.0000 C   0  0  0  0  0  0  0  0  0  0  0  0
    3.6098    3.4508    0.0000 C   0  0  0  0  0  0  0  0  0  0  0  0
    2.9154    4.7804    0.0000 C   0  0  0  0  0  0  0  0  0  0  0  0
    1.4167    4.8437    0.0000 N   0  0  0  0  0  0  0  0  0  0  0  0
    0.6125    3.5775    0.0000 C   0  0  0  0  0  0  0  0  0  0  0  0
   -1.6904    2.3747    0.0000 C   0  0  0  0  0  0  0  0  0  0  0  0
   -0.8862    3.6409    0.0000 O   0  0  0  0  0  0  0  0  0  0  0  0
   -3.1890    2.4380    0.0000 C   0  0  0  0  0  0  0  0  0  0  0  0
   -4.0187    3.6877    0.0000 C   0  0  0  0  0  0  0  0  0  0  0  0
   -5.4635    3.2848    0.0000 N   0  0  0  0  0  0  0  0  0  0  0  0
   -5.5269    1.7862    0.0000 C   0  0  0  0  0  0  0  0  0  0  0  0
   -4.1212    1.2628    0.0000 N   0  0  0  0  0  0  0  0  0  0  0  0
  1  2  1  0
  2  3  1  0
  2  4  1  0
  2  5  1  0
  5  6  2  0
  5 10  1  0
  6  7  1  0
  7  8  2  0
  8  9  1  0
  8 11  1  0
  9 10  2  0
 11 12  1  0
 11 29  1  0
 12 13  1  0
 12 23  1  0
 13 14  2  0
 13 15  1  0
 15 16  1  0
 16 17  1  0
 17 18  2  0
 17 22  1  0
 18 19  1  0
 19 20  2  0
 20 21  1  0
 21 22  2  0
 23 24  2  0
 23 28  1  0
 24 25  1  0
 25 26  2  0
 26 27  1  0
 27 28  2  0
 29 30  2  0
 29 31  1  0
 31 32  2  0
 31 35  1  0
 32 33  1  0
 33 34  2  0
 34 35  1  0
M  END
>  <s_m_entry_id>  (201) 
693

>  <s_m_entry_name>  (201) 
3C-like_protease_GHDDI_ligprep.312

>  <s_m_Source_Path>  (201) 
/home/jgilaber/drug_learning/drug_learning/datasets/SAR1/GHDDI

>  <s_m_Source_File>  (201) 
3C-like_protease_GHDDI_ligprep.sdf

>  <i_m_Source_File_Index>  (201) 
312

>  <s_m_subgroup_title>  (201) 
3C-like_protease_GHDDI_ligprep

>  <s_m_subgroupid>  (201) 
3C-like_protease_GHDDI_ligprep

>  <b_m_subgroup_collapsed>  (201) 
0

$$$$
10533
     RDKit          2D

 22 25  0  0  1  0  0  0  0  0999 V2000
   -5.5865   -0.4564    0.0000 C   0  0  0  0  0  0  0  0  0  0  0  0
   -4.3671    0.4171    0.0000 C   0  0  0  0  0  0  0  0  0  0  0  0
   -4.3571    1.9171    0.0000 C   0  0  0  0  0  0  0  0  0  0  0  0
   -2.9274    2.3710    0.0000 O   0  0  0  0  0  0  0  0  0  0  0  0
   -2.0539    1.1516    0.0000 C   0  0  0  0  0  0  0  0  0  0  0  0
   -0.5632    0.9848    0.0000 C   0  0  0  0  0  0  0  0  0  0  0  0
    0.3266    2.1924    0.0000 C   0  0  0  0  0  0  0  0  0  0  0  0
    1.8173    2.0256    0.0000 C   0  0  0  0  0  0  0  0  0  0  0  0
    2.4182    0.6512    0.0000 C   0  0  0  0  0  0  0  0  0  0  0  0
    1.5284   -0.5564    0.0000 C   0  0  0  0  0  0  0  0  0  0  0  0
    2.1293   -1.9308    0.0000 C   0  0  0  0  0  0  0  0  0  0  0  0
    3.6200   -2.0976    0.0000 C   0  0  0  0  0  0  0  0  0  0  0  0
    4.5098   -0.8900    0.0000 C   0  0  0  0  0  0  0  0  0  0  0  0
    3.9089    0.4844    0.0000 C   0  0  0  0  0  0  0  0  0  0  0  0
    3.8143    1.9814    0.0000 C   0  0  0  0  0  0  0  0  0  0  0  0
    5.3668    0.8375    0.0000 C   0  0  0  0  0  0  0  0  0  0  0  0
    0.0377   -0.3896    0.0000 C   0  0  0  0  0  0  0  0  0  0  0  0
   -0.8521   -1.5972    0.0000 C   0  0  0  0  0  0  0  0  0  0  0  0
   -0.2512   -2.9716    0.0000 O   0  0  0  0  0  0  0  0  0  0  0  0
   -2.3428   -1.4304    0.0000 C   0  0  0  0  0  0  0  0  0  0  0  0
   -3.2326   -2.6380    0.0000 O   0  0  0  0  0  0  0  0  0  0  0  0
   -2.9437   -0.0560    0.0000 C   0  0  0  0  0  0  0  0  0  0  0  0
  1  2  1  0
  2  3  2  0
  2 22  1  0
  3  4  1  0
  4  5  1  0
  5  6  1  0
  5 22  2  0
  6  7  2  0
  6 17  1  0
  7  8  1  0
  8  9  2  0
  9 10  1  0
  9 14  1  0
 10 11  1  0
 10 17  2  0
 11 12  1  0
 12 13  1  0
 13 14  1  0
 14 15  1  0
 14 16  1  0
 17 18  1  0
 18 19  2  0
 18 20  1  0
 20 21  2  0
 20 22  1  0
M  END
>  <s_m_entry_id>  (202) 
1145

>  <s_m_entry_name>  (202) 
3C-like_protease_GHDDI_ligprep.764

>  <s_m_Source_Path>  (202) 
/home/jgilaber/drug_learning/drug_learning/datasets/SAR1/GHDDI

>  <s_m_Source_File>  (202) 
3C-like_protease_GHDDI_ligprep.sdf

>  <i_m_Source_File_Index>  (202) 
764

>  <s_m_subgroup_title>  (202) 
3C-like_protease_GHDDI_ligprep

>  <s_m_subgroupid>  (202) 
3C-like_protease_GHDDI_ligprep

>  <b_m_subgroup_collapsed>  (202) 
0

$$$$
10823
     RDKit          2D

 21 23  0  0  1  0  0  0  0  0999 V2000
   -1.1594    2.6395    0.0000 O   0  0  0  0  0  0  0  0  0  0  0  0
   -0.2229    1.4678    0.0000 C   0  0  0  0  0  0  0  0  0  0  0  0
   -0.7694    0.0709    0.0000 C   0  0  0  0  0  0  0  0  0  0  0  0
    0.1672   -1.1008    0.0000 O   0  0  0  0  0  0  0  0  0  0  0  0
    1.6502   -0.8756    0.0000 C   0  0  0  0  0  0  0  0  0  0  0  0
    2.5867   -2.0474    0.0000 C   0  0  0  0  0  0  0  0  0  0  0  0
    4.0697   -1.8221    0.0000 C   0  0  0  0  0  0  0  0  0  0  0  0
    5.0062   -2.9939    0.0000 O   0  0  0  0  0  0  0  0  0  0  0  0
    4.6162   -0.4252    0.0000 C   0  0  0  0  0  0  0  0  0  0  0  0
    3.6796    0.7465    0.0000 C   0  0  0  0  0  0  0  0  0  0  0  0
    4.2261    2.1434    0.0000 O   0  0  0  0  0  0  0  0  0  0  0  0
    2.1966    0.5213    0.0000 C   0  0  0  0  0  0  0  0  0  0  0  0
    1.2601    1.6930    0.0000 C   0  0  0  0  0  0  0  0  0  0  0  0
    1.8066    3.0899    0.0000 O   0  0  0  0  0  0  0  0  0  0  0  0
   -2.2524   -0.1543    0.0000 C   0  0  0  0  0  0  0  0  0  0  0  0
   -3.1889    1.0174    0.0000 C   0  0  0  0  0  0  0  0  0  0  0  0
   -4.6719    0.7922    0.0000 C   0  0  0  0  0  0  0  0  0  0  0  0
   -5.2184   -0.6047    0.0000 C   0  0  0  0  0  0  0  0  0  0  0  0
   -6.7014   -0.8299    0.0000 O   0  0  0  0  0  0  0  0  0  0  0  0
   -4.2818   -1.7764    0.0000 C   0  0  0  0  0  0  0  0  0  0  0  0
   -2.7988   -1.5512    0.0000 C   0  0  0  0  0  0  0  0  0  0  0  0
  1  2  1  0
  2  3  2  0
  2 13  1  0
  3  4  1  0
  3 15  1  0
  4  5  1  0
  5  6  1  0
  5 12  2  0
  6  7  2  0
  7  8  1  0
  7  9  1  0
  9 10  2  0
 10 11  1  0
 10 12  1  0
 12 13  1  0
 13 14  2  0
 15 16  2  0
 15 21  1  0
 16 17  1  0
 17 18  2  0
 18 19  1  0
 18 20  1  0
 20 21  2  0
M  END
>  <s_m_entry_id>  (203) 
1176

>  <s_m_entry_name>  (203) 
3C-like_protease_GHDDI_ligprep.795

>  <s_m_Source_Path>  (203) 
/home/jgilaber/drug_learning/drug_learning/datasets/SAR1/GHDDI

>  <s_m_Source_File>  (203) 
3C-like_protease_GHDDI_ligprep.sdf

>  <i_m_Source_File_Index>  (203) 
795

>  <s_m_subgroup_title>  (203) 
3C-like_protease_GHDDI_ligprep

>  <s_m_subgroupid>  (203) 
3C-like_protease_GHDDI_ligprep

>  <b_m_subgroup_collapsed>  (203) 
0

$$$$
11296
     RDKit          2D

 19 20  0  0  1  0  0  0  0  0999 V2000
   -6.8569   -1.4968    0.0000 O   0  0  0  0  0  0  0  0  0  0  0  0
   -5.5202   -0.8162    0.0000 C   0  0  0  0  0  0  0  0  0  0  0  0
   -5.4413    0.6818    0.0000 C   0  0  0  0  0  0  0  0  0  0  0  0
   -4.1046    1.3624    0.0000 C   0  0  0  0  0  0  0  0  0  0  0  0
   -2.8468    0.5452    0.0000 C   0  0  0  0  0  0  0  0  0  0  0  0
   -1.5102    1.2258    0.0000 C   0  0  0  0  0  0  0  0  0  0  0  0
   -0.2523    0.4086    0.0000 C   0  0  0  0  0  0  0  0  0  0  0  0
    1.0843    1.0892    0.0000 C   0  0  0  0  0  0  0  0  0  0  0  0
    1.1632    2.5872    0.0000 O   0  0  0  0  0  0  0  0  0  0  0  0
    2.3421    0.2720    0.0000 C   0  0  0  0  0  0  0  0  0  0  0  0
    2.2633   -1.2260    0.0000 C   0  0  0  0  0  0  0  0  0  0  0  0
    3.5211   -2.0432    0.0000 C   0  0  0  0  0  0  0  0  0  0  0  0
    4.8577   -1.3626    0.0000 C   0  0  0  0  0  0  0  0  0  0  0  0
    6.1156   -2.1798    0.0000 O   0  0  0  0  0  0  0  0  0  0  0  0
    4.9366    0.1354    0.0000 C   0  0  0  0  0  0  0  0  0  0  0  0
    3.6788    0.9526    0.0000 C   0  0  0  0  0  0  0  0  0  0  0  0
    3.7577    2.4506    0.0000 O   0  0  0  0  0  0  0  0  0  0  0  0
   -2.9257   -0.9528    0.0000 C   0  0  0  0  0  0  0  0  0  0  0  0
   -4.2624   -1.6334    0.0000 C   0  0  0  0  0  0  0  0  0  0  0  0
  1  2  1  0
  2  3  2  0
  2 19  1  0
  3  4  1  0
  4  5  2  0
  5  6  1  0
  5 18  1  0
  6  7  2  0
  7  8  1  0
  8  9  2  0
  8 10  1  0
 10 11  2  0
 10 16  1  0
 11 12  1  0
 12 13  2  0
 13 14  1  0
 13 15  1  0
 15 16  2  0
 16 17  1  0
 18 19  2  0
M  END
>  <s_m_entry_id>  (204) 
1082

>  <s_m_entry_name>  (204) 
3C-like_protease_GHDDI_ligprep.701

>  <s_m_Source_Path>  (204) 
/home/jgilaber/drug_learning/drug_learning/datasets/SAR1/GHDDI

>  <s_m_Source_File>  (204) 
3C-like_protease_GHDDI_ligprep.sdf

>  <i_m_Source_File_Index>  (204) 
701

>  <s_m_subgroup_title>  (204) 
3C-like_protease_GHDDI_ligprep

>  <s_m_subgroupid>  (204) 
3C-like_protease_GHDDI_ligprep

>  <b_m_subgroup_collapsed>  (204) 
0

$$$$
11310
     RDKit          2D

 21 24  0  0  1  0  0  0  0  0999 V2000
   -5.3636    0.5618    0.0000 C   0  0  0  0  0  0  0  0  0  0  0  0
   -4.1705   -0.3474    0.0000 C   0  0  0  0  0  0  0  0  0  0  0  0
   -4.2049   -1.8470    0.0000 C   0  0  0  0  0  0  0  0  0  0  0  0
   -2.7893   -2.3431    0.0000 O   0  0  0  0  0  0  0  0  0  0  0  0
   -1.8801   -1.1501    0.0000 C   0  0  0  0  0  0  0  0  0  0  0  0
   -0.3851   -1.0275    0.0000 C   0  0  0  0  0  0  0  0  0  0  0  0
    0.4686   -2.2609    0.0000 C   0  0  0  0  0  0  0  0  0  0  0  0
    1.9636   -2.1383    0.0000 C   0  0  0  0  0  0  0  0  0  0  0  0
    2.6049   -0.7823    0.0000 C   0  0  0  0  0  0  0  0  0  0  0  0
    4.0999   -0.6597    0.0000 C   0  0  0  0  0  0  0  0  0  0  0  0
    4.9535   -1.8931    0.0000 C   0  0  0  0  0  0  0  0  0  0  0  0
    4.7412    0.6963    0.0000 C   0  0  0  0  0  0  0  0  0  0  0  0
    3.8875    1.9297    0.0000 C   0  0  0  0  0  0  0  0  0  0  0  0
    2.3925    1.8071    0.0000 C   0  0  0  0  0  0  0  0  0  0  0  0
    1.7512    0.4511    0.0000 C   0  0  0  0  0  0  0  0  0  0  0  0
    0.2562    0.3285    0.0000 C   0  0  0  0  0  0  0  0  0  0  0  0
   -0.5974    1.5619    0.0000 C   0  0  0  0  0  0  0  0  0  0  0  0
    0.0439    2.9179    0.0000 O   0  0  0  0  0  0  0  0  0  0  0  0
   -2.0924    1.4393    0.0000 C   0  0  0  0  0  0  0  0  0  0  0  0
   -2.9461    2.6727    0.0000 O   0  0  0  0  0  0  0  0  0  0  0  0
   -2.7337    0.0833    0.0000 C   0  0  0  0  0  0  0  0  0  0  0  0
  1  2  1  0
  2  3  2  0
  2 21  1  0
  3  4  1  0
  4  5  1  0
  5  6  1  0
  5 21  2  0
  6  7  2  0
  6 16  1  0
  7  8  1  0
  8  9  2  0
  9 10  1  0
  9 15  1  0
 10 11  1  0
 10 12  2  0
 12 13  1  0
 13 14  2  0
 14 15  1  0
 15 16  2  0
 16 17  1  0
 17 18  2  0
 17 19  1  0
 19 20  2  0
 19 21  1  0
M  END
>  <s_m_entry_id>  (205) 
1006

>  <s_m_entry_name>  (205) 
3C-like_protease_GHDDI_ligprep.625

>  <s_m_Source_Path>  (205) 
/home/jgilaber/drug_learning/drug_learning/datasets/SAR1/GHDDI

>  <s_m_Source_File>  (205) 
3C-like_protease_GHDDI_ligprep.sdf

>  <i_m_Source_File_Index>  (205) 
625

>  <s_m_subgroup_title>  (205) 
3C-like_protease_GHDDI_ligprep

>  <s_m_subgroupid>  (205) 
3C-like_protease_GHDDI_ligprep

>  <b_m_subgroup_collapsed>  (205) 
0

$$$$
13625
     RDKit          2D

 33 35  0  0  1  0  0  0  0  0999 V2000
   -0.9931    5.1716    0.0000 C   0  0  0  0  0  0  0  0  0  0  0  0
   -1.3227    3.7082    0.0000 C   0  0  0  0  0  0  0  0  0  0  0  0
   -1.6523    2.2449    0.0000 C   0  0  0  0  0  0  0  0  0  0  0  0
   -2.7860    4.0378    0.0000 C   0  0  0  0  0  0  0  0  0  0  0  0
    0.1406    3.3786    0.0000 C   0  0  0  0  0  0  0  0  0  0  0  0
    0.5869    1.9465    0.0000 C   0  0  0  0  0  0  0  0  0  0  0  0
    2.0502    1.6169    0.0000 N   0  0  0  0  0  0  0  0  0  0  0  0
    2.4964    0.1848    0.0000 C   0  0  0  0  0  0  0  0  0  0  0  0
    1.4793   -0.9176    0.0000 O   0  0  0  0  0  0  0  0  0  0  0  0
    3.9598   -0.1448    0.0000 C   0  0  0  0  0  0  0  0  0  0  0  0
    4.5532   -1.5224    0.0000 C   0  0  0  0  0  0  0  0  0  0  0  0
    6.0468   -1.3836    0.0000 C   0  0  0  0  0  0  0  0  0  0  0  0
    7.1493   -2.4007    0.0000 C   0  0  0  0  0  0  0  0  0  0  0  0
    8.5814   -1.9545    0.0000 C   0  0  0  0  0  0  0  0  0  0  0  0
    8.9110   -0.4912    0.0000 C   0  0  0  0  0  0  0  0  0  0  0  0
    7.8085    0.5259    0.0000 C   0  0  0  0  0  0  0  0  0  0  0  0
    6.3764    0.0797    0.0000 C   0  0  0  0  0  0  0  0  0  0  0  0
    5.0865    0.8454    0.0000 N   0  0  0  0  0  0  0  0  0  0  0  0
   -0.4303    0.8440    0.0000 C   0  0  0  0  0  0  0  0  0  0  0  0
    0.0160   -0.5880    0.0000 O   0  0  0  0  0  0  0  0  0  0  0  0
   -1.8936    1.1736    0.0000 N   0  0  0  0  0  0  0  0  0  0  0  0
   -2.9107    0.0712    0.0000 C   0  0  0  0  0  0  0  0  0  0  0  0
   -4.3740    0.4008    0.0000 C   0  0  0  0  0  0  0  0  0  0  0  0
   -5.3912   -0.7017    0.0000 C   0  0  0  0  0  0  0  0  0  0  0  0
   -5.0971   -2.1726    0.0000 C   0  0  0  0  0  0  0  0  0  0  0  0
   -6.4051   -2.9068    0.0000 C   0  0  0  0  0  0  0  0  0  0  0  0
   -7.5076   -1.8897    0.0000 N   0  0  0  0  0  0  0  0  0  0  0  0
   -6.8809   -0.5269    0.0000 C   0  0  0  0  0  0  0  0  0  0  0  0
   -7.6152    0.7811    0.0000 O   0  0  0  0  0  0  0  0  0  0  0  0
   -2.4645   -1.3609    0.0000 C   0  0  0  0  0  0  0  0  0  0  0  0
   -1.0011   -1.6905    0.0000 O   0  0  0  0  0  0  0  0  0  0  0  0
   -3.4816   -2.4634    0.0000 C   0  0  0  0  0  0  0  0  0  0  0  0
   -3.0354   -3.8955    0.0000 O   0  0  0  0  0  0  0  0  0  0  0  0
  1  2  1  0
  2  3  1  0
  2  4  1  0
  2  5  1  0
  5  6  1  0
  6  7  1  0
  6 19  1  0
  7  8  1  0
  8  9  2  0
  8 10  1  0
 10 11  2  0
 10 18  1  0
 11 12  1  0
 12 13  2  0
 12 17  1  0
 13 14  1  0
 14 15  2  0
 15 16  1  0
 16 17  2  0
 17 18  1  0
 19 20  2  0
 19 21  1  0
 21 22  1  0
 22 23  1  0
 22 30  1  0
 23 24  1  0
 24 25  1  0
 24 28  1  0
 25 26  1  0
 26 27  1  0
 27 28  1  0
 28 29  2  0
 30 31  2  0
 30 32  1  0
 32 33  1  0
M  END
>  <s_m_entry_id>  (206) 
387

>  <s_m_entry_name>  (206) 
3C-like_protease_GHDDI_ligprep.6

>  <s_m_Source_Path>  (206) 
/home/jgilaber/drug_learning/drug_learning/datasets/SAR1/GHDDI

>  <s_m_Source_File>  (206) 
3C-like_protease_GHDDI_ligprep.sdf

>  <i_m_Source_File_Index>  (206) 
6

>  <s_m_subgroup_title>  (206) 
3C-like_protease_GHDDI_ligprep

>  <s_m_subgroupid>  (206) 
3C-like_protease_GHDDI_ligprep

>  <b_m_subgroup_collapsed>  (206) 
0

$$$$
13626
     RDKit          2D

 34 36  0  0  1  0  0  0  0  0999 V2000
   -4.2334    5.3567    0.0000 C   0  0  0  0  0  0  0  0  0  0  0  0
   -2.7445    5.1746    0.0000 C   0  0  0  0  0  0  0  0  0  0  0  0
   -2.1578    3.7941    0.0000 C   0  0  0  0  0  0  0  0  0  0  0  0
   -0.6689    3.6120    0.0000 C   0  0  0  0  0  0  0  0  0  0  0  0
   -0.0822    2.2315    0.0000 C   0  0  0  0  0  0  0  0  0  0  0  0
    1.4067    2.0494    0.0000 N   0  0  0  0  0  0  0  0  0  0  0  0
    1.9935    0.6689    0.0000 C   0  0  0  0  0  0  0  0  0  0  0  0
    1.0913   -0.5295    0.0000 O   0  0  0  0  0  0  0  0  0  0  0  0
    3.4824    0.4867    0.0000 C   0  0  0  0  0  0  0  0  0  0  0  0
    4.2102   -0.8249    0.0000 C   0  0  0  0  0  0  0  0  0  0  0  0
    5.6825   -0.5380    0.0000 C   0  0  0  0  0  0  0  0  0  0  0  0
    6.8808   -1.4402    0.0000 C   0  0  0  0  0  0  0  0  0  0  0  0
    6.6987   -2.9291    0.0000 O   0  0  0  0  0  0  0  0  0  0  0  0
    7.8971   -3.8312    0.0000 C   0  0  0  0  0  0  0  0  0  0  0  0
    8.2613   -0.8534    0.0000 C   0  0  0  0  0  0  0  0  0  0  0  0
    8.4435    0.6355    0.0000 C   0  0  0  0  0  0  0  0  0  0  0  0
    7.2451    1.5376    0.0000 C   0  0  0  0  0  0  0  0  0  0  0  0
    5.8646    0.9509    0.0000 C   0  0  0  0  0  0  0  0  0  0  0  0
    4.5049    1.5842    0.0000 N   0  0  0  0  0  0  0  0  0  0  0  0
   -0.9844    1.0331    0.0000 C   0  0  0  0  0  0  0  0  0  0  0  0
   -0.3976   -0.3474    0.0000 O   0  0  0  0  0  0  0  0  0  0  0  0
   -2.4733    1.2153    0.0000 N   0  0  0  0  0  0  0  0  0  0  0  0
   -3.3754    0.0169    0.0000 C   0  0  0  0  0  0  0  0  0  0  0  0
   -4.8643    0.1990    0.0000 C   0  0  0  0  0  0  0  0  0  0  0  0
   -5.7665   -0.9993    0.0000 C   0  0  0  0  0  0  0  0  0  0  0  0
   -5.3273   -2.4336    0.0000 C   0  0  0  0  0  0  0  0  0  0  0  0
   -6.5556   -3.2945    0.0000 C   0  0  0  0  0  0  0  0  0  0  0  0
   -7.7540   -2.3923    0.0000 N   0  0  0  0  0  0  0  0  0  0  0  0
   -7.2663   -0.9738    0.0000 C   0  0  0  0  0  0  0  0  0  0  0  0
   -8.1272    0.2545    0.0000 O   0  0  0  0  0  0  0  0  0  0  0  0
   -2.7887   -1.3636    0.0000 C   0  0  0  0  0  0  0  0  0  0  0  0
   -1.2998   -1.5457    0.0000 O   0  0  0  0  0  0  0  0  0  0  0  0
   -3.6909   -2.5620    0.0000 C   0  0  0  0  0  0  0  0  0  0  0  0
   -3.1042   -3.9424    0.0000 O   0  0  0  0  0  0  0  0  0  0  0  0
  1  2  1  0
  2  3  1  0
  3  4  1  0
  4  5  1  0
  5  6  1  0
  5 20  1  0
  6  7  1  0
  7  8  2  0
  7  9  1  0
  9 10  2  0
  9 19  1  0
 10 11  1  0
 11 12  2  0
 11 18  1  0
 12 13  1  0
 12 15  1  0
 13 14  1  0
 15 16  2  0
 16 17  1  0
 17 18  2  0
 18 19  1  0
 20 21  2  0
 20 22  1  0
 22 23  1  0
 23 24  1  0
 23 31  1  0
 24 25  1  0
 25 26  1  0
 25 29  1  0
 26 27  1  0
 27 28  1  0
 28 29  1  0
 29 30  2  0
 31 32  2  0
 31 33  1  0
 33 34  1  0
M  END
>  <s_m_entry_id>  (207) 
388

>  <s_m_entry_name>  (207) 
3C-like_protease_GHDDI_ligprep.7

>  <s_m_Source_Path>  (207) 
/home/jgilaber/drug_learning/drug_learning/datasets/SAR1/GHDDI

>  <s_m_Source_File>  (207) 
3C-like_protease_GHDDI_ligprep.sdf

>  <i_m_Source_File_Index>  (207) 
7

>  <s_m_subgroup_title>  (207) 
3C-like_protease_GHDDI_ligprep

>  <s_m_subgroupid>  (207) 
3C-like_protease_GHDDI_ligprep

>  <b_m_subgroup_collapsed>  (207) 
0

$$$$
13633
     RDKit          2D

 62 62  0  0  1  0  0  0  0  0999 V2000
   -8.3765   -5.1583    0.0000 C   0  0  0  0  0  0  0  0  0  0  0  0
   -7.1180   -4.3421    0.0000 C   0  0  0  0  0  0  0  0  0  0  0  0
   -5.7819   -5.0238    0.0000 C   0  0  0  0  0  0  0  0  0  0  0  0
   -7.1957   -2.8441    0.0000 C   0  0  0  0  0  0  0  0  0  0  0  0
   -5.9372   -2.0278    0.0000 C   0  0  0  0  0  0  0  0  0  0  0  0
   -4.6011   -2.7096    0.0000 N   0  0  0  0  0  0  0  0  0  0  0  0
   -3.3426   -1.8933    0.0000 C   0  0  0  0  0  0  0  0  0  0  0  0
   -3.4203   -0.3953    0.0000 O   0  0  0  0  0  0  0  0  0  0  0  0
   -2.0065   -2.5751    0.0000 C   0  0  0  0  0  0  0  0  0  0  0  0
   -1.9289   -4.0731    0.0000 N   0  0  0  0  0  0  0  0  0  0  0  0
   -3.1873   -4.8893    0.0000 C   0  0  0  0  0  0  0  0  0  0  0  0
   -4.5234   -4.2076    0.0000 O   0  0  0  0  0  0  0  0  0  0  0  0
   -3.1097   -6.3873    0.0000 C   0  0  0  0  0  0  0  0  0  0  0  0
   -4.3681   -7.2035    0.0000 C   0  0  0  0  0  0  0  0  0  0  0  0
   -1.7735   -7.0690    0.0000 N   0  0  0  0  0  0  0  0  0  0  0  0
   -0.7480   -1.7588    0.0000 C   0  0  0  0  0  0  0  0  0  0  0  0
    0.5881   -2.4406    0.0000 C   0  0  0  0  0  0  0  0  0  0  0  0
   -0.8257   -0.2608    0.0000 C   0  0  0  0  0  0  0  0  0  0  0  0
   -6.0149   -0.5298    0.0000 C   0  0  0  0  0  0  0  0  0  0  0  0
   -7.3510    0.1519    0.0000 O   0  0  0  0  0  0  0  0  0  0  0  0
   -4.7564    0.2864    0.0000 N   0  0  0  0  0  0  0  0  0  0  0  0
   -4.8341    1.7844    0.0000 C   0  0  0  0  0  0  0  0  0  0  0  0
   -6.1702    2.4661    0.0000 C   0  0  0  0  0  0  0  0  0  0  0  0
   -7.4287    1.6499    0.0000 C   0  0  0  0  0  0  0  0  0  0  0  0
   -8.7648    2.3316    0.0000 C   0  0  0  0  0  0  0  0  0  0  0  0
   -8.8424    3.8296    0.0000 O   0  0  0  0  0  0  0  0  0  0  0  0
  -10.0232    1.5154    0.0000 N   0  0  0  0  0  0  0  0  0  0  0  0
   -3.5756    2.6006    0.0000 C   0  0  0  0  0  0  0  0  0  0  0  0
   -3.6532    4.0986    0.0000 O   0  0  0  0  0  0  0  0  0  0  0  0
   -2.2395    1.9189    0.0000 N   0  0  0  0  0  0  0  0  0  0  0  0
   -0.9810    2.7351    0.0000 C   0  0  0  0  0  0  0  0  0  0  0  0
   -1.0587    4.2331    0.0000 C   0  0  0  0  0  0  0  0  0  0  0  0
   -2.3948    4.9149    0.0000 O   0  0  0  0  0  0  0  0  0  0  0  0
    0.3551    2.0534    0.0000 C   0  0  0  0  0  0  0  0  0  0  0  0
    1.6136    2.8696    0.0000 O   0  0  0  0  0  0  0  0  0  0  0  0
    0.4328    0.5554    0.0000 N   0  0  0  0  0  0  0  0  0  0  0  0
    1.7689   -0.1263    0.0000 C   0  0  0  0  0  0  0  0  0  0  0  0
    3.0274    0.6899    0.0000 C   0  0  0  0  0  0  0  0  0  0  0  0
    4.3635    0.0082    0.0000 O   0  0  0  0  0  0  0  0  0  0  0  0
    2.9497    2.1879    0.0000 N   0  0  0  0  0  0  0  0  0  0  0  0
    4.2082    3.0041    0.0000 C   0  0  0  0  0  0  0  0  0  0  0  0
    4.1305    4.5021    0.0000 C   0  0  0  0  0  0  0  0  0  0  0  0
    2.7944    5.1839    0.0000 C   0  0  0  0  0  0  0  0  0  0  0  0
    1.5359    4.3676    0.0000 C   0  0  0  0  0  0  0  0  0  0  0  0
    0.1998    5.0494    0.0000 C   0  0  0  0  0  0  0  0  0  0  0  0
    0.1222    6.5474    0.0000 C   0  0  0  0  0  0  0  0  0  0  0  0
    1.3806    7.3636    0.0000 C   0  0  0  0  0  0  0  0  0  0  0  0
    2.7168    6.6819    0.0000 C   0  0  0  0  0  0  0  0  0  0  0  0
    5.5443    2.3224    0.0000 C   0  0  0  0  0  0  0  0  0  0  0  0
    6.8028    3.1386    0.0000 O   0  0  0  0  0  0  0  0  0  0  0  0
    5.6220    0.8244    0.0000 N   0  0  0  0  0  0  0  0  0  0  0  0
    6.9581    0.1427    0.0000 C   0  0  0  0  0  0  0  0  0  0  0  0
    7.0357   -1.3553    0.0000 C   0  0  0  0  0  0  0  0  0  0  0  0
    8.3719   -2.0371    0.0000 C   0  0  0  0  0  0  0  0  0  0  0  0
    8.4495   -3.5351    0.0000 C   0  0  0  0  0  0  0  0  0  0  0  0
    9.7856   -4.2168    0.0000 N   0  0  0  0  0  0  0  0  0  0  0  0
    9.8633   -5.7148    0.0000 C   0  0  0  0  0  0  0  0  0  0  0  0
   11.1994   -6.3965    0.0000 N   0  0  0  0  0  0  0  0  0  0  0  0
    8.6048   -6.5310    0.0000 N   0  0  0  0  0  0  0  0  0  0  0  0
    8.2166    0.9589    0.0000 C   0  0  0  0  0  0  0  0  0  0  0  0
    8.1389    2.4569    0.0000 O   0  0  0  0  0  0  0  0  0  0  0  0
    9.5527    0.2772    0.0000 O   0  0  0  0  0  0  0  0  0  0  0  0
  1  2  1  0
  2  3  1  0
  2  4  1  0
  4  5  1  0
  5  6  1  0
  5 19  1  0
  6  7  1  0
  7  8  2  0
  7  9  1  0
  9 10  1  0
  9 16  1  0
 10 11  1  0
 11 12  2  0
 11 13  1  0
 13 14  1  0
 13 15  1  0
 16 17  1  0
 16 18  1  0
 19 20  2  0
 19 21  1  0
 21 22  1  0
 22 23  1  0
 22 28  1  0
 23 24  1  0
 24 25  1  0
 25 26  2  0
 25 27  1  0
 28 29  2  0
 28 30  1  0
 30 31  1  0
 31 32  1  0
 31 34  1  0
 32 33  1  0
 34 35  2  0
 34 36  1  0
 36 37  1  0
 37 38  1  0
 38 39  2  0
 38 40  1  0
 40 41  1  0
 41 42  1  0
 41 49  1  0
 42 43  1  0
 43 44  2  0
 43 48  1  0
 44 45  1  0
 45 46  2  0
 46 47  1  0
 47 48  2  0
 49 50  2  0
 49 51  1  0
 51 52  1  0
 52 53  1  0
 52 60  1  0
 53 54  1  0
 54 55  1  0
 55 56  1  0
 56 57  2  3
 57 58  1  0
 57 59  1  0
 60 61  2  0
 60 62  1  0
M  CHG  2  56   1  62  -1
M  END
>  <s_m_entry_id>  (208) 
401

>  <s_m_entry_name>  (208) 
3C-like_protease_GHDDI_ligprep.20

>  <s_m_Source_Path>  (208) 
/home/jgilaber/drug_learning/drug_learning/datasets/SAR1/GHDDI

>  <s_m_Source_File>  (208) 
3C-like_protease_GHDDI_ligprep.sdf

>  <i_m_Source_File_Index>  (208) 
20

>  <s_m_subgroup_title>  (208) 
3C-like_protease_GHDDI_ligprep

>  <s_m_subgroupid>  (208) 
3C-like_protease_GHDDI_ligprep

>  <b_m_subgroup_collapsed>  (208) 
0

$$$$
13634
     RDKit          2D

 42 45  0  0  1  0  0  0  0  0999 V2000
  -10.3334   -0.0655    0.0000 C   0  0  0  0  0  0  0  0  0  0  0  0
   -8.8349   -0.1324    0.0000 O   0  0  0  0  0  0  0  0  0  0  0  0
   -8.0277    1.1319    0.0000 C   0  0  0  0  0  0  0  0  0  0  0  0
   -8.7191    2.4631    0.0000 C   0  0  0  0  0  0  0  0  0  0  0  0
   -7.9119    3.7274    0.0000 C   0  0  0  0  0  0  0  0  0  0  0  0
   -6.4134    3.6606    0.0000 C   0  0  0  0  0  0  0  0  0  0  0  0
   -5.7221    2.3294    0.0000 C   0  0  0  0  0  0  0  0  0  0  0  0
   -4.2702    1.9524    0.0000 N   0  0  0  0  0  0  0  0  0  0  0  0
   -4.1801    0.4552    0.0000 C   0  0  0  0  0  0  0  0  0  0  0  0
   -5.5762   -0.0933    0.0000 C   0  0  0  0  0  0  0  0  0  0  0  0
   -6.5292    1.0651    0.0000 C   0  0  0  0  0  0  0  0  0  0  0  0
   -2.9157   -0.3520    0.0000 C   0  0  0  0  0  0  0  0  0  0  0  0
   -1.5846    0.3394    0.0000 O   0  0  0  0  0  0  0  0  0  0  0  0
   -2.9826   -1.8505    0.0000 N   0  0  0  0  0  0  0  0  0  0  0  0
   -1.7183   -2.6577    0.0000 C   0  0  0  0  0  0  0  0  0  0  0  0
   -1.7851   -4.1562    0.0000 C   0  0  0  0  0  0  0  0  0  0  0  0
   -0.5208   -4.9633    0.0000 C   0  0  0  0  0  0  0  0  0  0  0  0
   -1.3280   -6.2276    0.0000 C   0  0  0  0  0  0  0  0  0  0  0  0
    0.2863   -3.6990    0.0000 C   0  0  0  0  0  0  0  0  0  0  0  0
    0.7435   -5.7705    0.0000 C   0  0  0  0  0  0  0  0  0  0  0  0
   -0.3871   -1.9663    0.0000 C   0  0  0  0  0  0  0  0  0  0  0  0
   -0.3202   -0.4678    0.0000 O   0  0  0  0  0  0  0  0  0  0  0  0
    0.8772   -2.7735    0.0000 N   0  0  0  0  0  0  0  0  0  0  0  0
    2.2084   -2.0821    0.0000 C   0  0  0  0  0  0  0  0  0  0  0  0
    3.4727   -2.8893    0.0000 C   0  0  0  0  0  0  0  0  0  0  0  0
    4.8039   -2.1979    0.0000 C   0  0  0  0  0  0  0  0  0  0  0  0
    5.0270   -0.7146    0.0000 C   0  0  0  0  0  0  0  0  0  0  0  0
    6.5067   -0.4684    0.0000 C   0  0  0  0  0  0  0  0  0  0  0  0
    7.1980   -1.7996    0.0000 N   0  0  0  0  0  0  0  0  0  0  0  0
    6.1457   -2.8685    0.0000 C   0  0  0  0  0  0  0  0  0  0  0  0
    6.3918   -4.3481    0.0000 O   0  0  0  0  0  0  0  0  0  0  0  0
    2.2753   -0.5836    0.0000 C   0  0  0  0  0  0  0  0  0  0  0  0
    1.0109    0.2236    0.0000 O   0  0  0  0  0  0  0  0  0  0  0  0
    3.6064    0.1078    0.0000 C   0  0  0  0  0  0  0  0  0  0  0  0
    3.6733    1.6063    0.0000 O   0  0  0  0  0  0  0  0  0  0  0  0
    5.0045    2.2976    0.0000 C   0  0  0  0  0  0  0  0  0  0  0  0
    5.0713    3.7961    0.0000 C   0  0  0  0  0  0  0  0  0  0  0  0
    6.4025    4.4875    0.0000 C   0  0  0  0  0  0  0  0  0  0  0  0
    6.4693    5.9860    0.0000 C   0  0  0  0  0  0  0  0  0  0  0  0
    5.2050    6.7932    0.0000 C   0  0  0  0  0  0  0  0  0  0  0  0
    3.8738    6.1018    0.0000 C   0  0  0  0  0  0  0  0  0  0  0  0
    3.8070    4.6033    0.0000 C   0  0  0  0  0  0  0  0  0  0  0  0
  1  2  1  0
  2  3  1  0
  3  4  2  0
  3 11  1  0
  4  5  1  0
  5  6  2  0
  6  7  1  0
  7  8  1  0
  7 11  2  0
  8  9  1  0
  9 10  2  0
  9 12  1  0
 10 11  1  0
 12 13  2  0
 12 14  1  0
 14 15  1  0
 15 16  1  0
 15 21  1  0
 16 17  1  0
 17 18  1  0
 17 19  1  0
 17 20  1  0
 21 22  2  0
 21 23  1  0
 23 24  1  0
 24 25  1  0
 24 32  1  0
 25 26  1  0
 26 27  1  0
 26 30  1  0
 27 28  1  0
 28 29  1  0
 29 30  1  0
 30 31  2  0
 32 33  2  0
 32 34  1  0
 34 35  1  0
 35 36  1  0
 36 37  1  0
 37 38  2  0
 37 42  1  0
 38 39  1  0
 39 40  2  0
 40 41  1  0
 41 42  2  0
M  END
>  <s_m_entry_id>  (209) 
402

>  <s_m_entry_name>  (209) 
3C-like_protease_GHDDI_ligprep.21

>  <s_m_Source_Path>  (209) 
/home/jgilaber/drug_learning/drug_learning/datasets/SAR1/GHDDI

>  <s_m_Source_File>  (209) 
3C-like_protease_GHDDI_ligprep.sdf

>  <i_m_Source_File_Index>  (209) 
21

>  <s_m_subgroup_title>  (209) 
3C-like_protease_GHDDI_ligprep

>  <s_m_subgroupid>  (209) 
3C-like_protease_GHDDI_ligprep

>  <b_m_subgroup_collapsed>  (209) 
0

$$$$
13635
     RDKit          2D

 36 38  0  0  1  0  0  0  0  0999 V2000
   -3.9177   -5.1194    0.0000 C   0  0  0  0  0  0  0  0  0  0  0  0
   -2.9984   -3.9341    0.0000 O   0  0  0  0  0  0  0  0  0  0  0  0
   -3.5653   -2.5453    0.0000 C   0  0  0  0  0  0  0  0  0  0  0  0
   -2.6460   -1.3600    0.0000 C   0  0  0  0  0  0  0  0  0  0  0  0
   -1.1599   -1.5635    0.0000 O   0  0  0  0  0  0  0  0  0  0  0  0
   -3.2129    0.0287    0.0000 C   0  0  0  0  0  0  0  0  0  0  0  0
   -4.6990    0.2322    0.0000 C   0  0  0  0  0  0  0  0  0  0  0  0
   -5.6183   -0.9531    0.0000 C   0  0  0  0  0  0  0  0  0  0  0  0
   -5.1997   -2.3935    0.0000 C   0  0  0  0  0  0  0  0  0  0  0  0
   -6.4402   -3.2367    0.0000 C   0  0  0  0  0  0  0  0  0  0  0  0
   -7.6256   -2.3175    0.0000 N   0  0  0  0  0  0  0  0  0  0  0  0
   -7.1176   -0.9061    0.0000 C   0  0  0  0  0  0  0  0  0  0  0  0
   -7.9608    0.3344    0.0000 O   0  0  0  0  0  0  0  0  0  0  0  0
   -2.2936    1.2140    0.0000 N   0  0  0  0  0  0  0  0  0  0  0  0
   -0.8075    1.0106    0.0000 C   0  0  0  0  0  0  0  0  0  0  0  0
   -0.2406   -0.3782    0.0000 O   0  0  0  0  0  0  0  0  0  0  0  0
    0.1118    2.1959    0.0000 C   0  0  0  0  0  0  0  0  0  0  0  0
   -0.4551    3.5846    0.0000 C   0  0  0  0  0  0  0  0  0  0  0  0
   -1.9412    3.7881    0.0000 C   0  0  0  0  0  0  0  0  0  0  0  0
   -2.5081    5.1769    0.0000 C   0  0  0  0  0  0  0  0  0  0  0  0
   -3.9942    5.3803    0.0000 C   0  0  0  0  0  0  0  0  0  0  0  0
   -1.5888    6.3622    0.0000 C   0  0  0  0  0  0  0  0  0  0  0  0
    1.5979    1.9924    0.0000 N   0  0  0  0  0  0  0  0  0  0  0  0
    2.1648    0.6037    0.0000 C   0  0  0  0  0  0  0  0  0  0  0  0
    1.2455   -0.5816    0.0000 O   0  0  0  0  0  0  0  0  0  0  0  0
    3.6509    0.4002    0.0000 C   0  0  0  0  0  0  0  0  0  0  0  0
    4.3599   -0.9217    0.0000 C   0  0  0  0  0  0  0  0  0  0  0  0
    5.8361   -0.6559    0.0000 C   0  0  0  0  0  0  0  0  0  0  0  0
    7.0214   -1.5752    0.0000 C   0  0  0  0  0  0  0  0  0  0  0  0
    6.8180   -3.0613    0.0000 O   0  0  0  0  0  0  0  0  0  0  0  0
    8.0033   -3.9806    0.0000 C   0  0  0  0  0  0  0  0  0  0  0  0
    8.4102   -1.0083    0.0000 C   0  0  0  0  0  0  0  0  0  0  0  0
    8.6137    0.4778    0.0000 C   0  0  0  0  0  0  0  0  0  0  0  0
    7.4284    1.3971    0.0000 C   0  0  0  0  0  0  0  0  0  0  0  0
    6.0396    0.8302    0.0000 C   0  0  0  0  0  0  0  0  0  0  0  0
    4.6891    1.4829    0.0000 N   0  0  0  0  0  0  0  0  0  0  0  0
  1  2  1  0
  2  3  1  0
  3  4  1  0
  4  5  2  0
  4  6  1  0
  6  7  1  0
  6 14  1  0
  7  8  1  0
  8  9  1  0
  8 12  1  0
  9 10  1  0
 10 11  1  0
 11 12  1  0
 12 13  2  0
 14 15  1  0
 15 16  2  0
 15 17  1  0
 17 18  1  0
 17 23  1  0
 18 19  1  0
 19 20  1  0
 20 21  1  0
 20 22  1  0
 23 24  1  0
 24 25  2  0
 24 26  1  0
 26 27  2  0
 26 36  1  0
 27 28  1  0
 28 29  2  0
 28 35  1  0
 29 30  1  0
 29 32  1  0
 30 31  1  0
 32 33  2  0
 33 34  1  0
 34 35  2  0
 35 36  1  0
M  END
>  <s_m_entry_id>  (210) 
404

>  <s_m_entry_name>  (210) 
3C-like_protease_GHDDI_ligprep.23

>  <s_m_Source_Path>  (210) 
/home/jgilaber/drug_learning/drug_learning/datasets/SAR1/GHDDI

>  <s_m_Source_File>  (210) 
3C-like_protease_GHDDI_ligprep.sdf

>  <i_m_Source_File_Index>  (210) 
23

>  <s_m_subgroup_title>  (210) 
3C-like_protease_GHDDI_ligprep

>  <s_m_subgroupid>  (210) 
3C-like_protease_GHDDI_ligprep

>  <b_m_subgroup_collapsed>  (210) 
0

$$$$
13636
     RDKit          2D

 32 34  0  0  1  0  0  0  0  0999 V2000
   -1.7672    5.2708    0.0000 C   0  0  0  0  0  0  0  0  0  0  0  0
   -1.3327    3.8351    0.0000 C   0  0  0  0  0  0  0  0  0  0  0  0
   -2.3588    2.7410    0.0000 C   0  0  0  0  0  0  0  0  0  0  0  0
    0.1279    3.4936    0.0000 C   0  0  0  0  0  0  0  0  0  0  0  0
    0.5624    2.0579    0.0000 C   0  0  0  0  0  0  0  0  0  0  0  0
    2.0230    1.7163    0.0000 N   0  0  0  0  0  0  0  0  0  0  0  0
    2.4575    0.2806    0.0000 C   0  0  0  0  0  0  0  0  0  0  0  0
    1.4314   -0.8135    0.0000 O   0  0  0  0  0  0  0  0  0  0  0  0
    3.9181   -0.0609    0.0000 C   0  0  0  0  0  0  0  0  0  0  0  0
    4.5003   -1.4433    0.0000 C   0  0  0  0  0  0  0  0  0  0  0  0
    5.9949   -1.3168    0.0000 C   0  0  0  0  0  0  0  0  0  0  0  0
    7.0890   -2.3429    0.0000 C   0  0  0  0  0  0  0  0  0  0  0  0
    8.5247   -1.9084    0.0000 C   0  0  0  0  0  0  0  0  0  0  0  0
    8.8663   -0.4478    0.0000 C   0  0  0  0  0  0  0  0  0  0  0  0
    7.7722    0.5783    0.0000 C   0  0  0  0  0  0  0  0  0  0  0  0
    6.3365    0.1438    0.0000 C   0  0  0  0  0  0  0  0  0  0  0  0
    5.0529    0.9200    0.0000 N   0  0  0  0  0  0  0  0  0  0  0  0
   -0.4637    0.9637    0.0000 C   0  0  0  0  0  0  0  0  0  0  0  0
   -0.0292   -0.4719    0.0000 O   0  0  0  0  0  0  0  0  0  0  0  0
   -1.9243    1.3053    0.0000 N   0  0  0  0  0  0  0  0  0  0  0  0
   -2.9504    0.2112    0.0000 C   0  0  0  0  0  0  0  0  0  0  0  0
   -4.4110    0.5527    0.0000 C   0  0  0  0  0  0  0  0  0  0  0  0
   -5.4371   -0.5414    0.0000 C   0  0  0  0  0  0  0  0  0  0  0  0
   -5.1551   -2.0147    0.0000 C   0  0  0  0  0  0  0  0  0  0  0  0
   -6.4690   -2.7382    0.0000 C   0  0  0  0  0  0  0  0  0  0  0  0
   -7.5632   -1.7121    0.0000 N   0  0  0  0  0  0  0  0  0  0  0  0
   -6.9254   -0.3544    0.0000 C   0  0  0  0  0  0  0  0  0  0  0  0
   -7.6489    0.9596    0.0000 O   0  0  0  0  0  0  0  0  0  0  0  0
   -2.5159   -1.2245    0.0000 C   0  0  0  0  0  0  0  0  0  0  0  0
   -1.0553   -1.5661    0.0000 O   0  0  0  0  0  0  0  0  0  0  0  0
   -3.5420   -2.3187    0.0000 C   0  0  0  0  0  0  0  0  0  0  0  0
   -3.1075   -3.7543    0.0000 O   0  0  0  0  0  0  0  0  0  0  0  0
  1  2  1  0
  2  3  1  0
  2  4  1  0
  4  5  1  0
  5  6  1  0
  5 18  1  0
  6  7  1  0
  7  8  2  0
  7  9  1  0
  9 10  2  0
  9 17  1  0
 10 11  1  0
 11 12  2  0
 11 16  1  0
 12 13  1  0
 13 14  2  0
 14 15  1  0
 15 16  2  0
 16 17  1  0
 18 19  2  0
 18 20  1  0
 20 21  1  0
 21 22  1  0
 21 29  1  0
 22 23  1  0
 23 24  1  0
 23 27  1  0
 24 25  1  0
 25 26  1  0
 26 27  1  0
 27 28  2  0
 29 30  2  0
 29 31  1  0
 31 32  1  0
M  END
>  <s_m_entry_id>  (211) 
405

>  <s_m_entry_name>  (211) 
3C-like_protease_GHDDI_ligprep.24

>  <s_m_Source_Path>  (211) 
/home/jgilaber/drug_learning/drug_learning/datasets/SAR1/GHDDI

>  <s_m_Source_File>  (211) 
3C-like_protease_GHDDI_ligprep.sdf

>  <i_m_Source_File_Index>  (211) 
24

>  <s_m_subgroup_title>  (211) 
3C-like_protease_GHDDI_ligprep

>  <s_m_subgroupid>  (211) 
3C-like_protease_GHDDI_ligprep

>  <b_m_subgroup_collapsed>  (211) 
0

$$$$
13637
     RDKit          2D

 44 47  0  0  1  0  0  0  0  0999 V2000
  -10.6999    1.0047    0.0000 C   0  0  0  0  0  0  0  0  0  0  0  0
   -9.2287    0.7123    0.0000 O   0  0  0  0  0  0  0  0  0  0  0  0
   -8.2398    1.8402    0.0000 C   0  0  0  0  0  0  0  0  0  0  0  0
   -8.7221    3.2605    0.0000 C   0  0  0  0  0  0  0  0  0  0  0  0
   -7.7332    4.3884    0.0000 C   0  0  0  0  0  0  0  0  0  0  0  0
   -6.2620    4.0959    0.0000 C   0  0  0  0  0  0  0  0  0  0  0  0
   -5.7797    2.6756    0.0000 C   0  0  0  0  0  0  0  0  0  0  0  0
   -4.4014    2.0836    0.0000 N   0  0  0  0  0  0  0  0  0  0  0  0
   -4.5385    0.5899    0.0000 C   0  0  0  0  0  0  0  0  0  0  0  0
   -6.0015    0.2587    0.0000 C   0  0  0  0  0  0  0  0  0  0  0  0
   -6.7686    1.5477    0.0000 C   0  0  0  0  0  0  0  0  0  0  0  0
   -3.4106   -0.3990    0.0000 C   0  0  0  0  0  0  0  0  0  0  0  0
   -1.9903    0.0833    0.0000 O   0  0  0  0  0  0  0  0  0  0  0  0
   -3.7031   -1.8702    0.0000 N   0  0  0  0  0  0  0  0  0  0  0  0
   -2.5752   -2.8591    0.0000 C   0  0  0  0  0  0  0  0  0  0  0  0
   -2.8677   -4.3303    0.0000 C   0  0  0  0  0  0  0  0  0  0  0  0
   -1.7398   -5.3192    0.0000 C   0  0  0  0  0  0  0  0  0  0  0  0
   -2.0322   -6.7904    0.0000 C   0  0  0  0  0  0  0  0  0  0  0  0
   -0.3194   -4.8368    0.0000 C   0  0  0  0  0  0  0  0  0  0  0  0
   -1.1549   -2.3768    0.0000 C   0  0  0  0  0  0  0  0  0  0  0  0
   -0.8624   -0.9055    0.0000 O   0  0  0  0  0  0  0  0  0  0  0  0
   -0.0270   -3.3656    0.0000 N   0  0  0  0  0  0  0  0  0  0  0  0
    1.3934   -2.8833    0.0000 C   0  0  0  0  0  0  0  0  0  0  0  0
    2.5212   -3.8722    0.0000 C   0  0  0  0  0  0  0  0  0  0  0  0
    3.9416   -3.3899    0.0000 C   0  0  0  0  0  0  0  0  0  0  0  0
    4.3862   -1.9573    0.0000 C   0  0  0  0  0  0  0  0  0  0  0  0
    5.8861   -1.9375    0.0000 C   0  0  0  0  0  0  0  0  0  0  0  0
    6.3684   -3.3578    0.0000 N   0  0  0  0  0  0  0  0  0  0  0  0
    5.1666   -4.2554    0.0000 C   0  0  0  0  0  0  0  0  0  0  0  0
    5.1865   -5.7553    0.0000 O   0  0  0  0  0  0  0  0  0  0  0  0
    1.6858   -1.4121    0.0000 C   0  0  0  0  0  0  0  0  0  0  0  0
    0.5579   -0.4232    0.0000 O   0  0  0  0  0  0  0  0  0  0  0  0
    3.1062   -0.9298    0.0000 C   0  0  0  0  0  0  0  0  0  0  0  0
    3.3986    0.5414    0.0000 O   0  0  0  0  0  0  0  0  0  0  0  0
    4.8190    1.0238    0.0000 C   0  0  0  0  0  0  0  0  0  0  0  0
    5.9468    0.0349    0.0000 O   0  0  0  0  0  0  0  0  0  0  0  0
    5.1114    2.4950    0.0000 C   0  0  0  0  0  0  0  0  0  0  0  0
    6.5318    2.9773    0.0000 C   0  0  0  0  0  0  0  0  0  0  0  0
    6.8242    4.4485    0.0000 C   0  0  0  0  0  0  0  0  0  0  0  0
    5.6963    5.4374    0.0000 C   0  0  0  0  0  0  0  0  0  0  0  0
    4.2760    4.9551    0.0000 C   0  0  0  0  0  0  0  0  0  0  0  0
    3.9835    3.4839    0.0000 C   0  0  0  0  0  0  0  0  0  0  0  0
    5.9888    6.9086    0.0000 C   0  0  0  0  0  0  0  0  0  0  0  0
    6.2813    8.3798    0.0000 N   0  0  0  0  0  0  0  0  0  0  0  0
  1  2  1  0
  2  3  1  0
  3  4  2  0
  3 11  1  0
  4  5  1  0
  5  6  2  0
  6  7  1  0
  7  8  1  0
  7 11  2  0
  8  9  1  0
  9 10  2  0
  9 12  1  0
 10 11  1  0
 12 13  2  0
 12 14  1  0
 14 15  1  0
 15 16  1  0
 15 20  1  0
 16 17  1  0
 17 18  1  0
 17 19  1  0
 20 21  2  0
 20 22  1  0
 22 23  1  0
 23 24  1  0
 23 31  1  0
 24 25  1  0
 25 26  1  0
 25 29  1  0
 26 27  1  0
 27 28  1  0
 28 29  1  0
 29 30  2  0
 31 32  2  0
 31 33  1  0
 33 34  1  0
 34 35  1  0
 35 36  2  0
 35 37  1  0
 37 38  2  0
 37 42  1  0
 38 39  1  0
 39 40  2  0
 40 41  1  0
 40 43  1  0
 41 42  2  0
 43 44  3  0
M  END
>  <s_m_entry_id>  (212) 
408

>  <s_m_entry_name>  (212) 
3C-like_protease_GHDDI_ligprep.27

>  <s_m_Source_Path>  (212) 
/home/jgilaber/drug_learning/drug_learning/datasets/SAR1/GHDDI

>  <s_m_Source_File>  (212) 
3C-like_protease_GHDDI_ligprep.sdf

>  <i_m_Source_File_Index>  (212) 
27

>  <s_m_subgroup_title>  (212) 
3C-like_protease_GHDDI_ligprep

>  <s_m_subgroupid>  (212) 
3C-like_protease_GHDDI_ligprep

>  <b_m_subgroup_collapsed>  (212) 
0

$$$$
13641
     RDKit          2D

 36 38  0  0  1  0  0  0  0  0999 V2000
   -4.0627   -4.8704    0.0000 C   0  0  0  0  0  0  0  0  0  0  0  0
   -3.1141   -3.7085    0.0000 O   0  0  0  0  0  0  0  0  0  0  0  0
   -3.6459   -2.3060    0.0000 C   0  0  0  0  0  0  0  0  0  0  0  0
   -2.6972   -1.1441    0.0000 C   0  0  0  0  0  0  0  0  0  0  0  0
   -1.2167   -1.3848    0.0000 O   0  0  0  0  0  0  0  0  0  0  0  0
   -3.2291    0.2584    0.0000 C   0  0  0  0  0  0  0  0  0  0  0  0
   -4.7097    0.4991    0.0000 C   0  0  0  0  0  0  0  0  0  0  0  0
   -5.6584   -0.6628    0.0000 C   0  0  0  0  0  0  0  0  0  0  0  0
   -5.2760   -2.1133    0.0000 C   0  0  0  0  0  0  0  0  0  0  0  0
   -6.5373   -2.9251    0.0000 C   0  0  0  0  0  0  0  0  0  0  0  0
   -7.6992   -1.9765    0.0000 N   0  0  0  0  0  0  0  0  0  0  0  0
   -7.1560   -0.5783    0.0000 C   0  0  0  0  0  0  0  0  0  0  0  0
   -7.9679    0.6830    0.0000 O   0  0  0  0  0  0  0  0  0  0  0  0
   -2.2804    1.4203    0.0000 N   0  0  0  0  0  0  0  0  0  0  0  0
   -0.7999    1.1797    0.0000 C   0  0  0  0  0  0  0  0  0  0  0  0
   -0.2680   -0.2229    0.0000 O   0  0  0  0  0  0  0  0  0  0  0  0
    0.1488    2.3415    0.0000 C   0  0  0  0  0  0  0  0  0  0  0  0
   -0.3831    3.7441    0.0000 C   0  0  0  0  0  0  0  0  0  0  0  0
   -1.8636    3.9847    0.0000 C   0  0  0  0  0  0  0  0  0  0  0  0
   -1.6230    5.4653    0.0000 C   0  0  0  0  0  0  0  0  0  0  0  0
   -2.1043    2.5042    0.0000 C   0  0  0  0  0  0  0  0  0  0  0  0
   -3.3442    4.2254    0.0000 C   0  0  0  0  0  0  0  0  0  0  0  0
    1.6294    2.1009    0.0000 N   0  0  0  0  0  0  0  0  0  0  0  0
    2.1613    0.6984    0.0000 C   0  0  0  0  0  0  0  0  0  0  0  0
    1.2126   -0.4635    0.0000 O   0  0  0  0  0  0  0  0  0  0  0  0
    3.6418    0.4577    0.0000 C   0  0  0  0  0  0  0  0  0  0  0  0
    4.3174   -0.8815    0.0000 C   0  0  0  0  0  0  0  0  0  0  0  0
    5.7999   -0.6529    0.0000 C   0  0  0  0  0  0  0  0  0  0  0  0
    6.9618   -1.6016    0.0000 C   0  0  0  0  0  0  0  0  0  0  0  0
    6.7211   -3.0821    0.0000 O   0  0  0  0  0  0  0  0  0  0  0  0
    7.8830   -4.0308    0.0000 C   0  0  0  0  0  0  0  0  0  0  0  0
    8.3643   -1.0697    0.0000 C   0  0  0  0  0  0  0  0  0  0  0  0
    8.6050    0.4109    0.0000 C   0  0  0  0  0  0  0  0  0  0  0  0
    7.4431    1.3596    0.0000 C   0  0  0  0  0  0  0  0  0  0  0  0
    6.0405    0.8277    0.0000 C   0  0  0  0  0  0  0  0  0  0  0  0
    4.7068    1.5141    0.0000 N   0  0  0  0  0  0  0  0  0  0  0  0
  1  2  1  0
  2  3  1  0
  3  4  1  0
  4  5  2  0
  4  6  1  0
  6  7  1  0
  6 14  1  0
  7  8  1  0
  8  9  1  0
  8 12  1  0
  9 10  1  0
 10 11  1  0
 11 12  1  0
 12 13  2  0
 14 15  1  0
 15 16  2  0
 15 17  1  0
 17 18  1  0
 17 23  1  0
 18 19  1  0
 19 20  1  0
 19 21  1  0
 19 22  1  0
 23 24  1  0
 24 25  2  0
 24 26  1  0
 26 27  2  0
 26 36  1  0
 27 28  1  0
 28 29  2  0
 28 35  1  0
 29 30  1  0
 29 32  1  0
 30 31  1  0
 32 33  2  0
 33 34  1  0
 34 35  2  0
 35 36  1  0
M  END
>  <s_m_entry_id>  (213) 
412

>  <s_m_entry_name>  (213) 
3C-like_protease_GHDDI_ligprep.31

>  <s_m_Source_Path>  (213) 
/home/jgilaber/drug_learning/drug_learning/datasets/SAR1/GHDDI

>  <s_m_Source_File>  (213) 
3C-like_protease_GHDDI_ligprep.sdf

>  <i_m_Source_File_Index>  (213) 
31

>  <s_m_subgroup_title>  (213) 
3C-like_protease_GHDDI_ligprep

>  <s_m_subgroupid>  (213) 
3C-like_protease_GHDDI_ligprep

>  <b_m_subgroup_collapsed>  (213) 
0

$$$$
13642
     RDKit          2D

 36 38  0  0  1  0  0  0  0  0999 V2000
   -9.5681   -1.5058    0.0000 C   0  0  0  0  0  0  0  0  0  0  0  0
   -8.0905   -1.2474    0.0000 O   0  0  0  0  0  0  0  0  0  0  0  0
   -7.5754    0.1614    0.0000 C   0  0  0  0  0  0  0  0  0  0  0  0
   -8.5379    1.3118    0.0000 C   0  0  0  0  0  0  0  0  0  0  0  0
   -8.0229    2.7206    0.0000 C   0  0  0  0  0  0  0  0  0  0  0  0
   -6.5453    2.9789    0.0000 C   0  0  0  0  0  0  0  0  0  0  0  0
   -5.5828    1.8285    0.0000 C   0  0  0  0  0  0  0  0  0  0  0  0
   -4.0837    1.7740    0.0000 N   0  0  0  0  0  0  0  0  0  0  0  0
   -3.6724    0.3315    0.0000 C   0  0  0  0  0  0  0  0  0  0  0  0
   -4.9172   -0.5055    0.0000 C   0  0  0  0  0  0  0  0  0  0  0  0
   -6.0978    0.4197    0.0000 C   0  0  0  0  0  0  0  0  0  0  0  0
   -2.2636   -0.1836    0.0000 C   0  0  0  0  0  0  0  0  0  0  0  0
   -1.1131    0.7789    0.0000 O   0  0  0  0  0  0  0  0  0  0  0  0
   -2.0053   -1.6612    0.0000 N   0  0  0  0  0  0  0  0  0  0  0  0
   -0.5965   -2.1763    0.0000 C   0  0  0  0  0  0  0  0  0  0  0  0
   -0.3381   -3.6539    0.0000 C   0  0  0  0  0  0  0  0  0  0  0  0
    1.0706   -4.1689    0.0000 C   0  0  0  0  0  0  0  0  0  0  0  0
    1.3290   -5.6465    0.0000 C   0  0  0  0  0  0  0  0  0  0  0  0
    2.2211   -3.2064    0.0000 C   0  0  0  0  0  0  0  0  0  0  0  0
    0.5540   -1.2138    0.0000 C   0  0  0  0  0  0  0  0  0  0  0  0
    0.2957    0.2638    0.0000 O   0  0  0  0  0  0  0  0  0  0  0  0
    1.9628   -1.7288    0.0000 N   0  0  0  0  0  0  0  0  0  0  0  0
    3.1133   -0.7663    0.0000 C   0  0  0  0  0  0  0  0  0  0  0  0
    4.5220   -1.2814    0.0000 C   0  0  0  0  0  0  0  0  0  0  0  0
    5.6725   -0.3189    0.0000 C   0  0  0  0  0  0  0  0  0  0  0  0
    5.5700    1.1776    0.0000 C   0  0  0  0  0  0  0  0  0  0  0  0
    6.9616    1.7375    0.0000 C   0  0  0  0  0  0  0  0  0  0  0  0
    7.9241    0.5870    0.0000 N   0  0  0  0  0  0  0  0  0  0  0  0
    7.1274   -0.6839    0.0000 C   0  0  0  0  0  0  0  0  0  0  0  0
    7.6873   -2.0755    0.0000 O   0  0  0  0  0  0  0  0  0  0  0  0
    2.8549    0.7113    0.0000 C   0  0  0  0  0  0  0  0  0  0  0  0
    1.4461    1.2263    0.0000 O   0  0  0  0  0  0  0  0  0  0  0  0
    4.0054    1.6738    0.0000 C   0  0  0  0  0  0  0  0  0  0  0  0
    3.7471    3.1514    0.0000 N   0  0  0  0  0  0  0  0  0  0  0  0
    4.8975    4.1139    0.0000 N   0  0  0  0  0  0  0  0  0  0  0  0
    6.0480    5.0764    0.0000 N   0  0  0  0  0  0  0  0  0  0  0  0
  1  2  1  0
  2  3  1  0
  3  4  2  0
  3 11  1  0
  4  5  1  0
  5  6  2  0
  6  7  1  0
  7  8  1  0
  7 11  2  0
  8  9  1  0
  9 10  2  0
  9 12  1  0
 10 11  1  0
 12 13  2  0
 12 14  1  0
 14 15  1  0
 15 16  1  0
 15 20  1  0
 16 17  1  0
 17 18  1  0
 17 19  1  0
 20 21  2  0
 20 22  1  0
 22 23  1  0
 23 24  1  0
 23 31  1  0
 24 25  1  0
 25 26  1  0
 25 29  1  0
 26 27  1  0
 27 28  1  0
 28 29  1  0
 29 30  2  0
 31 32  2  0
 31 33  1  0
 33 34  1  0
 34 35  2  0
 35 36  2  0
M  CHG  1  35   1
M  END
>  <s_m_entry_id>  (214) 
413

>  <s_m_entry_name>  (214) 
3C-like_protease_GHDDI_ligprep.32

>  <s_m_Source_Path>  (214) 
/home/jgilaber/drug_learning/drug_learning/datasets/SAR1/GHDDI

>  <s_m_Source_File>  (214) 
3C-like_protease_GHDDI_ligprep.sdf

>  <i_m_Source_File_Index>  (214) 
32

>  <s_m_subgroup_title>  (214) 
3C-like_protease_GHDDI_ligprep

>  <s_m_subgroupid>  (214) 
3C-like_protease_GHDDI_ligprep

>  <b_m_subgroup_collapsed>  (214) 
0

$$$$
13644
     RDKit          2D

 44 47  0  0  1  0  0  0  0  0999 V2000
   -6.3719   -7.9095    0.0000 C   0  0  0  0  0  0  0  0  0  0  0  0
   -5.0113   -7.2780    0.0000 O   0  0  0  0  0  0  0  0  0  0  0  0
   -4.8779   -5.7840    0.0000 C   0  0  0  0  0  0  0  0  0  0  0  0
   -6.1050   -4.9214    0.0000 C   0  0  0  0  0  0  0  0  0  0  0  0
   -5.9716   -3.4273    0.0000 C   0  0  0  0  0  0  0  0  0  0  0  0
   -4.6110   -2.7959    0.0000 C   0  0  0  0  0  0  0  0  0  0  0  0
   -3.3838   -3.6585    0.0000 C   0  0  0  0  0  0  0  0  0  0  0  0
   -3.5173   -5.1525    0.0000 C   0  0  0  0  0  0  0  0  0  0  0  0
   -4.4775   -1.3018    0.0000 C   0  0  0  0  0  0  0  0  0  0  0  0
   -5.7047   -0.4392    0.0000 O   0  0  0  0  0  0  0  0  0  0  0  0
   -3.1169   -0.6704    0.0000 O   0  0  0  0  0  0  0  0  0  0  0  0
   -2.9834    0.8237    0.0000 C   0  0  0  0  0  0  0  0  0  0  0  0
   -1.6228    1.4551    0.0000 C   0  0  0  0  0  0  0  0  0  0  0  0
   -0.3957    0.5925    0.0000 O   0  0  0  0  0  0  0  0  0  0  0  0
   -1.4894    2.9492    0.0000 C   0  0  0  0  0  0  0  0  0  0  0  0
   -2.7165    3.8118    0.0000 C   0  0  0  0  0  0  0  0  0  0  0  0
   -4.0771    3.1803    0.0000 C   0  0  0  0  0  0  0  0  0  0  0  0
   -4.3660    1.7084    0.0000 C   0  0  0  0  0  0  0  0  0  0  0  0
   -5.8552    1.5283    0.0000 C   0  0  0  0  0  0  0  0  0  0  0  0
   -6.4866    2.8889    0.0000 N   0  0  0  0  0  0  0  0  0  0  0  0
   -5.3877    3.9099    0.0000 C   0  0  0  0  0  0  0  0  0  0  0  0
   -5.5678    5.3991    0.0000 O   0  0  0  0  0  0  0  0  0  0  0  0
   -0.1288    3.5806    0.0000 N   0  0  0  0  0  0  0  0  0  0  0  0
    1.0984    2.7180    0.0000 C   0  0  0  0  0  0  0  0  0  0  0  0
    0.9649    1.2240    0.0000 O   0  0  0  0  0  0  0  0  0  0  0  0
    2.4590    3.3495    0.0000 C   0  0  0  0  0  0  0  0  0  0  0  0
    2.5925    4.8435    0.0000 C   0  0  0  0  0  0  0  0  0  0  0  0
    1.3653    5.7061    0.0000 C   0  0  0  0  0  0  0  0  0  0  0  0
    1.4988    7.2002    0.0000 C   0  0  0  0  0  0  0  0  0  0  0  0
    0.0047    5.0747    0.0000 C   0  0  0  0  0  0  0  0  0  0  0  0
    3.6862    2.4869    0.0000 N   0  0  0  0  0  0  0  0  0  0  0  0
    3.5527    0.9928    0.0000 C   0  0  0  0  0  0  0  0  0  0  0  0
    2.1921    0.3614    0.0000 O   0  0  0  0  0  0  0  0  0  0  0  0
    4.7799    0.1302    0.0000 C   0  0  0  0  0  0  0  0  0  0  0  0
    4.8033   -1.3696    0.0000 C   0  0  0  0  0  0  0  0  0  0  0  0
    6.2370   -1.8108    0.0000 C   0  0  0  0  0  0  0  0  0  0  0  0
    6.8684   -3.1714    0.0000 C   0  0  0  0  0  0  0  0  0  0  0  0
    6.0058   -4.3985    0.0000 O   0  0  0  0  0  0  0  0  0  0  0  0
    6.6373   -5.7592    0.0000 C   0  0  0  0  0  0  0  0  0  0  0  0
    8.3625   -3.3048    0.0000 C   0  0  0  0  0  0  0  0  0  0  0  0
    9.2251   -2.0777    0.0000 C   0  0  0  0  0  0  0  0  0  0  0  0
    8.5936   -0.7171    0.0000 C   0  0  0  0  0  0  0  0  0  0  0  0
    7.0996   -0.5836    0.0000 C   0  0  0  0  0  0  0  0  0  0  0  0
    6.1990    0.6160    0.0000 N   0  0  0  0  0  0  0  0  0  0  0  0
  1  2  1  0
  2  3  1  0
  3  4  2  0
  3  8  1  0
  4  5  1  0
  5  6  2  0
  6  7  1  0
  6  9  1  0
  7  8  2  0
  9 10  2  0
  9 11  1  0
 11 12  1  0
 12 13  1  0
 13 14  2  0
 13 15  1  0
 15 16  1  0
 15 23  1  0
 16 17  1  0
 17 18  1  0
 17 21  1  0
 18 19  1  0
 19 20  1  0
 20 21  1  0
 21 22  2  0
 23 24  1  0
 24 25  2  0
 24 26  1  0
 26 27  1  0
 26 31  1  0
 27 28  1  0
 28 29  1  0
 28 30  1  0
 31 32  1  0
 32 33  2  0
 32 34  1  0
 34 35  2  0
 34 44  1  0
 35 36  1  0
 36 37  2  0
 36 43  1  0
 37 38  1  0
 37 40  1  0
 38 39  1  0
 40 41  2  0
 41 42  1  0
 42 43  2  0
 43 44  1  0
M  END
>  <s_m_entry_id>  (215) 
415

>  <s_m_entry_name>  (215) 
3C-like_protease_GHDDI_ligprep.34

>  <s_m_Source_Path>  (215) 
/home/jgilaber/drug_learning/drug_learning/datasets/SAR1/GHDDI

>  <s_m_Source_File>  (215) 
3C-like_protease_GHDDI_ligprep.sdf

>  <i_m_Source_File_Index>  (215) 
34

>  <s_m_subgroup_title>  (215) 
3C-like_protease_GHDDI_ligprep

>  <s_m_subgroupid>  (215) 
3C-like_protease_GHDDI_ligprep

>  <b_m_subgroup_collapsed>  (215) 
0

$$$$
13645
     RDKit          2D

 43 46  0  0  1  0  0  0  0  0999 V2000
  -10.6164    0.3358    0.0000 C   0  0  0  0  0  0  0  0  0  0  0  0
   -9.1263    0.1642    0.0000 O   0  0  0  0  0  0  0  0  0  0  0  0
   -8.2326    1.3689    0.0000 C   0  0  0  0  0  0  0  0  0  0  0  0
   -8.8290    2.7452    0.0000 C   0  0  0  0  0  0  0  0  0  0  0  0
   -7.9353    3.9499    0.0000 C   0  0  0  0  0  0  0  0  0  0  0  0
   -6.4452    3.7783    0.0000 C   0  0  0  0  0  0  0  0  0  0  0  0
   -5.8487    2.4019    0.0000 C   0  0  0  0  0  0  0  0  0  0  0  0
   -4.4268    1.9242    0.0000 N   0  0  0  0  0  0  0  0  0  0  0  0
   -4.4417    0.4243    0.0000 C   0  0  0  0  0  0  0  0  0  0  0  0
   -5.8729   -0.0250    0.0000 C   0  0  0  0  0  0  0  0  0  0  0  0
   -6.7424    1.1972    0.0000 C   0  0  0  0  0  0  0  0  0  0  0  0
   -3.2371   -0.4694    0.0000 C   0  0  0  0  0  0  0  0  0  0  0  0
   -1.8607    0.1271    0.0000 O   0  0  0  0  0  0  0  0  0  0  0  0
   -3.4087   -1.9595    0.0000 N   0  0  0  0  0  0  0  0  0  0  0  0
   -2.2040   -2.8532    0.0000 C   0  0  0  0  0  0  0  0  0  0  0  0
   -2.3756   -4.3434    0.0000 C   0  0  0  0  0  0  0  0  0  0  0  0
   -1.1709   -5.2371    0.0000 C   0  0  0  0  0  0  0  0  0  0  0  0
   -1.3425   -6.7273    0.0000 C   0  0  0  0  0  0  0  0  0  0  0  0
    0.2054   -4.6407    0.0000 C   0  0  0  0  0  0  0  0  0  0  0  0
   -0.8277   -2.2568    0.0000 C   0  0  0  0  0  0  0  0  0  0  0  0
   -0.6560   -0.7667    0.0000 O   0  0  0  0  0  0  0  0  0  0  0  0
    0.3770   -3.1505    0.0000 N   0  0  0  0  0  0  0  0  0  0  0  0
    1.7533   -2.5541    0.0000 C   0  0  0  0  0  0  0  0  0  0  0  0
    2.9580   -3.4478    0.0000 C   0  0  0  0  0  0  0  0  0  0  0  0
    4.3344   -2.8513    0.0000 C   0  0  0  0  0  0  0  0  0  0  0  0
    4.6608   -1.3873    0.0000 C   0  0  0  0  0  0  0  0  0  0  0  0
    6.1541   -1.2453    0.0000 C   0  0  0  0  0  0  0  0  0  0  0  0
    6.7505   -2.6217    0.0000 N   0  0  0  0  0  0  0  0  0  0  0  0
    5.6259   -3.6142    0.0000 C   0  0  0  0  0  0  0  0  0  0  0  0
    5.7678   -5.1075    0.0000 O   0  0  0  0  0  0  0  0  0  0  0  0
    1.9250   -1.0639    0.0000 C   0  0  0  0  0  0  0  0  0  0  0  0
    0.7203   -0.1702    0.0000 O   0  0  0  0  0  0  0  0  0  0  0  0
    3.3013   -0.4675    0.0000 C   0  0  0  0  0  0  0  0  0  0  0  0
    3.4729    1.0227    0.0000 O   0  0  0  0  0  0  0  0  0  0  0  0
    4.8492    1.6191    0.0000 C   0  0  0  0  0  0  0  0  0  0  0  0
    6.0539    0.7254    0.0000 O   0  0  0  0  0  0  0  0  0  0  0  0
    5.0209    3.1093    0.0000 C   0  0  0  0  0  0  0  0  0  0  0  0
    6.3972    3.7057    0.0000 C   0  0  0  0  0  0  0  0  0  0  0  0
    6.5688    5.1959    0.0000 C   0  0  0  0  0  0  0  0  0  0  0  0
    5.3641    6.0896    0.0000 C   0  0  0  0  0  0  0  0  0  0  0  0
    5.5357    7.5797    0.0000 F   0  0  0  0  0  0  0  0  0  0  0  0
    3.9878    5.4931    0.0000 C   0  0  0  0  0  0  0  0  0  0  0  0
    3.8162    4.0030    0.0000 C   0  0  0  0  0  0  0  0  0  0  0  0
  1  2  1  0
  2  3  1  0
  3  4  2  0
  3 11  1  0
  4  5  1  0
  5  6  2  0
  6  7  1  0
  7  8  1  0
  7 11  2  0
  8  9  1  0
  9 10  2  0
  9 12  1  0
 10 11  1  0
 12 13  2  0
 12 14  1  0
 14 15  1  0
 15 16  1  0
 15 20  1  0
 16 17  1  0
 17 18  1  0
 17 19  1  0
 20 21  2  0
 20 22  1  0
 22 23  1  0
 23 24  1  0
 23 31  1  0
 24 25  1  0
 25 26  1  0
 25 29  1  0
 26 27  1  0
 27 28  1  0
 28 29  1  0
 29 30  2  0
 31 32  2  0
 31 33  1  0
 33 34  1  0
 34 35  1  0
 35 36  2  0
 35 37  1  0
 37 38  2  0
 37 43  1  0
 38 39  1  0
 39 40  2  0
 40 41  1  0
 40 42  1  0
 42 43  2  0
M  END
>  <s_m_entry_id>  (216) 
416

>  <s_m_entry_name>  (216) 
3C-like_protease_GHDDI_ligprep.35

>  <s_m_Source_Path>  (216) 
/home/jgilaber/drug_learning/drug_learning/datasets/SAR1/GHDDI

>  <s_m_Source_File>  (216) 
3C-like_protease_GHDDI_ligprep.sdf

>  <i_m_Source_File_Index>  (216) 
35

>  <s_m_subgroup_title>  (216) 
3C-like_protease_GHDDI_ligprep

>  <s_m_subgroupid>  (216) 
3C-like_protease_GHDDI_ligprep

>  <b_m_subgroup_collapsed>  (216) 
0

$$$$
13646
     RDKit          2D

 42 45  0  0  1  0  0  0  0  0999 V2000
  -10.4965   -0.1330    0.0000 C   0  0  0  0  0  0  0  0  0  0  0  0
   -8.9986   -0.2122    0.0000 O   0  0  0  0  0  0  0  0  0  0  0  0
   -8.1811    1.0455    0.0000 C   0  0  0  0  0  0  0  0  0  0  0  0
   -8.8615    2.3823    0.0000 C   0  0  0  0  0  0  0  0  0  0  0  0
   -8.0440    3.6399    0.0000 C   0  0  0  0  0  0  0  0  0  0  0  0
   -6.5461    3.5608    0.0000 C   0  0  0  0  0  0  0  0  0  0  0  0
   -5.8657    2.2240    0.0000 C   0  0  0  0  0  0  0  0  0  0  0  0
   -4.4169    1.8351    0.0000 N   0  0  0  0  0  0  0  0  0  0  0  0
   -4.3391    0.3371    0.0000 C   0  0  0  0  0  0  0  0  0  0  0  0
   -5.7397   -0.1998    0.0000 C   0  0  0  0  0  0  0  0  0  0  0  0
   -6.6832    0.9663    0.0000 C   0  0  0  0  0  0  0  0  0  0  0  0
   -3.0814   -0.4804    0.0000 C   0  0  0  0  0  0  0  0  0  0  0  0
   -1.7446    0.2000    0.0000 O   0  0  0  0  0  0  0  0  0  0  0  0
   -3.1606   -1.9783    0.0000 N   0  0  0  0  0  0  0  0  0  0  0  0
   -1.9029   -2.7958    0.0000 C   0  0  0  0  0  0  0  0  0  0  0  0
   -1.9821   -4.2937    0.0000 C   0  0  0  0  0  0  0  0  0  0  0  0
   -0.7245   -5.1112    0.0000 C   0  0  0  0  0  0  0  0  0  0  0  0
   -0.8036   -6.6091    0.0000 C   0  0  0  0  0  0  0  0  0  0  0  0
    0.6124   -4.4308    0.0000 C   0  0  0  0  0  0  0  0  0  0  0  0
   -0.5661   -2.1154    0.0000 C   0  0  0  0  0  0  0  0  0  0  0  0
   -0.4870   -0.6175    0.0000 O   0  0  0  0  0  0  0  0  0  0  0  0
    0.6915   -2.9329    0.0000 N   0  0  0  0  0  0  0  0  0  0  0  0
    2.0283   -2.2525    0.0000 C   0  0  0  0  0  0  0  0  0  0  0  0
    3.2860   -3.0700    0.0000 C   0  0  0  0  0  0  0  0  0  0  0  0
    4.6228   -2.3896    0.0000 C   0  0  0  0  0  0  0  0  0  0  0  0
    4.8581   -0.9082    0.0000 C   0  0  0  0  0  0  0  0  0  0  0  0
    6.3397   -0.6742    0.0000 C   0  0  0  0  0  0  0  0  0  0  0  0
    7.0201   -2.0110    0.0000 N   0  0  0  0  0  0  0  0  0  0  0  0
    5.9590   -3.0712    0.0000 C   0  0  0  0  0  0  0  0  0  0  0  0
    6.1930   -4.5528    0.0000 O   0  0  0  0  0  0  0  0  0  0  0  0
    2.1075   -0.7546    0.0000 C   0  0  0  0  0  0  0  0  0  0  0  0
    0.8498    0.0629    0.0000 O   0  0  0  0  0  0  0  0  0  0  0  0
    3.4443   -0.0742    0.0000 C   0  0  0  0  0  0  0  0  0  0  0  0
    3.5234    1.4237    0.0000 O   0  0  0  0  0  0  0  0  0  0  0  0
    4.8602    2.1041    0.0000 C   0  0  0  0  0  0  0  0  0  0  0  0
    6.1179    1.2866    0.0000 O   0  0  0  0  0  0  0  0  0  0  0  0
    4.9394    3.6020    0.0000 C   0  0  0  0  0  0  0  0  0  0  0  0
    6.2762    4.2824    0.0000 C   0  0  0  0  0  0  0  0  0  0  0  0
    6.3554    5.7804    0.0000 C   0  0  0  0  0  0  0  0  0  0  0  0
    5.0977    6.5979    0.0000 C   0  0  0  0  0  0  0  0  0  0  0  0
    3.7609    5.9175    0.0000 C   0  0  0  0  0  0  0  0  0  0  0  0
    3.6817    4.4196    0.0000 C   0  0  0  0  0  0  0  0  0  0  0  0
  1  2  1  0
  2  3  1  0
  3  4  2  0
  3 11  1  0
  4  5  1  0
  5  6  2  0
  6  7  1  0
  7  8  1  0
  7 11  2  0
  8  9  1  0
  9 10  2  0
  9 12  1  0
 10 11  1  0
 12 13  2  0
 12 14  1  0
 14 15  1  0
 15 16  1  0
 15 20  1  0
 16 17  1  0
 17 18  1  0
 17 19  1  0
 20 21  2  0
 20 22  1  0
 22 23  1  0
 23 24  1  0
 23 31  1  0
 24 25  1  0
 25 26  1  0
 25 29  1  0
 26 27  1  0
 27 28  1  0
 28 29  1  0
 29 30  2  0
 31 32  2  0
 31 33  1  0
 33 34  1  0
 34 35  1  0
 35 36  2  0
 35 37  1  0
 37 38  2  0
 37 42  1  0
 38 39  1  0
 39 40  2  0
 40 41  1  0
 41 42  2  0
M  END
>  <s_m_entry_id>  (217) 
417

>  <s_m_entry_name>  (217) 
3C-like_protease_GHDDI_ligprep.36

>  <s_m_Source_Path>  (217) 
/home/jgilaber/drug_learning/drug_learning/datasets/SAR1/GHDDI

>  <s_m_Source_File>  (217) 
3C-like_protease_GHDDI_ligprep.sdf

>  <i_m_Source_File_Index>  (217) 
36

>  <s_m_subgroup_title>  (217) 
3C-like_protease_GHDDI_ligprep

>  <s_m_subgroupid>  (217) 
3C-like_protease_GHDDI_ligprep

>  <b_m_subgroup_collapsed>  (217) 
0

$$$$
13647
     RDKit          2D

 44 48  0  0  1  0  0  0  0  0999 V2000
  -10.4519   -0.3085    0.0000 C   0  0  0  0  0  0  0  0  0  0  0  0
   -8.9519   -0.2950    0.0000 O   0  0  0  0  0  0  0  0  0  0  0  0
   -8.2137    1.0107    0.0000 C   0  0  0  0  0  0  0  0  0  0  0  0
   -8.9753    2.3030    0.0000 C   0  0  0  0  0  0  0  0  0  0  0  0
   -8.2371    3.6087    0.0000 C   0  0  0  0  0  0  0  0  0  0  0  0
   -6.7371    3.6222    0.0000 C   0  0  0  0  0  0  0  0  0  0  0  0
   -5.9755    2.3300    0.0000 C   0  0  0  0  0  0  0  0  0  0  0  0
   -4.5055    2.0313    0.0000 N   0  0  0  0  0  0  0  0  0  0  0  0
   -4.3353    0.5410    0.0000 C   0  0  0  0  0  0  0  0  0  0  0  0
   -5.7000   -0.0814    0.0000 C   0  0  0  0  0  0  0  0  0  0  0  0
   -6.7137    1.0242    0.0000 C   0  0  0  0  0  0  0  0  0  0  0  0
   -3.0295   -0.1972    0.0000 C   0  0  0  0  0  0  0  0  0  0  0  0
   -1.7373    0.5644    0.0000 O   0  0  0  0  0  0  0  0  0  0  0  0
   -3.0160   -1.6972    0.0000 N   0  0  0  0  0  0  0  0  0  0  0  0
   -1.7103   -2.4354    0.0000 C   0  0  0  0  0  0  0  0  0  0  0  0
   -1.6968   -3.9354    0.0000 C   0  0  0  0  0  0  0  0  0  0  0  0
   -0.3910   -4.6737    0.0000 C   0  0  0  0  0  0  0  0  0  0  0  0
   -0.3775   -6.1736    0.0000 C   0  0  0  0  0  0  0  0  0  0  0  0
    0.9282   -6.9119    0.0000 C   0  0  0  0  0  0  0  0  0  0  0  0
    2.2205   -6.1502    0.0000 C   0  0  0  0  0  0  0  0  0  0  0  0
    2.2070   -4.6503    0.0000 C   0  0  0  0  0  0  0  0  0  0  0  0
    0.9012   -3.9120    0.0000 C   0  0  0  0  0  0  0  0  0  0  0  0
   -0.4180   -1.6738    0.0000 C   0  0  0  0  0  0  0  0  0  0  0  0
   -0.4316   -0.1738    0.0000 O   0  0  0  0  0  0  0  0  0  0  0  0
    0.8877   -2.4120    0.0000 N   0  0  0  0  0  0  0  0  0  0  0  0
    2.1799   -1.6504    0.0000 C   0  0  0  0  0  0  0  0  0  0  0  0
    3.4857   -2.3886    0.0000 C   0  0  0  0  0  0  0  0  0  0  0  0
    4.7779   -1.6270    0.0000 C   0  0  0  0  0  0  0  0  0  0  0  0
    4.9213   -0.1338    0.0000 C   0  0  0  0  0  0  0  0  0  0  0  0
    6.3856    0.1912    0.0000 C   0  0  0  0  0  0  0  0  0  0  0  0
    7.1473   -1.1010    0.0000 N   0  0  0  0  0  0  0  0  0  0  0  0
    6.1537   -2.2247    0.0000 C   0  0  0  0  0  0  0  0  0  0  0  0
    6.4787   -3.6891    0.0000 O   0  0  0  0  0  0  0  0  0  0  0  0
    2.1664   -0.1504    0.0000 C   0  0  0  0  0  0  0  0  0  0  0  0
    0.8607    0.5878    0.0000 O   0  0  0  0  0  0  0  0  0  0  0  0
    3.4587    0.6112    0.0000 C   0  0  0  0  0  0  0  0  0  0  0  0
    3.4451    2.1112    0.0000 O   0  0  0  0  0  0  0  0  0  0  0  0
    4.7374    2.8728    0.0000 C   0  0  0  0  0  0  0  0  0  0  0  0
    4.7239    4.3728    0.0000 C   0  0  0  0  0  0  0  0  0  0  0  0
    6.0161    5.1345    0.0000 C   0  0  0  0  0  0  0  0  0  0  0  0
    6.0026    6.6344    0.0000 C   0  0  0  0  0  0  0  0  0  0  0  0
    4.6968    7.3727    0.0000 C   0  0  0  0  0  0  0  0  0  0  0  0
    3.4046    6.6110    0.0000 C   0  0  0  0  0  0  0  0  0  0  0  0
    3.4181    5.1111    0.0000 C   0  0  0  0  0  0  0  0  0  0  0  0
  1  2  1  0
  2  3  1  0
  3  4  2  0
  3 11  1  0
  4  5  1  0
  5  6  2  0
  6  7  1  0
  7  8  1  0
  7 11  2  0
  8  9  1  0
  9 10  2  0
  9 12  1  0
 10 11  1  0
 12 13  2  0
 12 14  1  0
 14 15  1  0
 15 16  1  0
 15 23  1  0
 16 17  1  0
 17 18  1  0
 17 22  1  0
 18 19  1  0
 19 20  1  0
 20 21  1  0
 21 22  1  0
 23 24  2  0
 23 25  1  0
 25 26  1  0
 26 27  1  0
 26 34  1  0
 27 28  1  0
 28 29  1  0
 28 32  1  0
 29 30  1  0
 30 31  1  0
 31 32  1  0
 32 33  2  0
 34 35  2  0
 34 36  1  0
 36 37  1  0
 37 38  1  0
 38 39  1  0
 39 40  2  0
 39 44  1  0
 40 41  1  0
 41 42  2  0
 42 43  1  0
 43 44  2  0
M  END
>  <s_m_entry_id>  (218) 
418

>  <s_m_entry_name>  (218) 
3C-like_protease_GHDDI_ligprep.37

>  <s_m_Source_Path>  (218) 
/home/jgilaber/drug_learning/drug_learning/datasets/SAR1/GHDDI

>  <s_m_Source_File>  (218) 
3C-like_protease_GHDDI_ligprep.sdf

>  <i_m_Source_File_Index>  (218) 
37

>  <s_m_subgroup_title>  (218) 
3C-like_protease_GHDDI_ligprep

>  <s_m_subgroupid>  (218) 
3C-like_protease_GHDDI_ligprep

>  <b_m_subgroup_collapsed>  (218) 
0

$$$$
13648
     RDKit          2D

 29 30  0  0  1  0  0  0  0  0999 V2000
   -0.7328   -4.9704    0.0000 C   0  0  0  0  0  0  0  0  0  0  0  0
   -0.2285   -3.5577    0.0000 C   0  0  0  0  0  0  0  0  0  0  0  0
    0.2757   -2.1450    0.0000 C   0  0  0  0  0  0  0  0  0  0  0  0
    1.1841   -4.0620    0.0000 C   0  0  0  0  0  0  0  0  0  0  0  0
   -1.6412   -3.0534    0.0000 C   0  0  0  0  0  0  0  0  0  0  0  0
   -1.9109   -1.5779    0.0000 C   0  0  0  0  0  0  0  0  0  0  0  0
   -3.3235   -1.0736    0.0000 N   0  0  0  0  0  0  0  0  0  0  0  0
   -3.5932    0.4020    0.0000 C   0  0  0  0  0  0  0  0  0  0  0  0
   -2.4501    1.3733    0.0000 O   0  0  0  0  0  0  0  0  0  0  0  0
   -5.0058    0.9063    0.0000 C   0  0  0  0  0  0  0  0  0  0  0  0
   -6.2442    0.0598    0.0000 C   0  0  0  0  0  0  0  0  0  0  0  0
   -7.4319    0.9760    0.0000 C   0  0  0  0  0  0  0  0  0  0  0  0
   -6.9276    2.3887    0.0000 C   0  0  0  0  0  0  0  0  0  0  0  0
   -5.4282    2.3456    0.0000 O   0  0  0  0  0  0  0  0  0  0  0  0
   -0.7678   -0.6066    0.0000 C   0  0  0  0  0  0  0  0  0  0  0  0
   -1.0374    0.8690    0.0000 O   0  0  0  0  0  0  0  0  0  0  0  0
    0.6449   -1.1109    0.0000 N   0  0  0  0  0  0  0  0  0  0  0  0
    1.7880   -0.1396    0.0000 C   0  0  0  0  0  0  0  0  0  0  0  0
    3.2007   -0.6439    0.0000 C   0  0  0  0  0  0  0  0  0  0  0  0
    4.3437    0.3274    0.0000 C   0  0  0  0  0  0  0  0  0  0  0  0
    4.2298    1.8231    0.0000 C   0  0  0  0  0  0  0  0  0  0  0  0
    5.6171    2.3936    0.0000 C   0  0  0  0  0  0  0  0  0  0  0  0
    6.5884    1.2505    0.0000 N   0  0  0  0  0  0  0  0  0  0  0  0
    5.8014   -0.0265    0.0000 C   0  0  0  0  0  0  0  0  0  0  0  0
    6.3719   -1.4137    0.0000 O   0  0  0  0  0  0  0  0  0  0  0  0
    1.5184    1.3360    0.0000 C   0  0  0  0  0  0  0  0  0  0  0  0
    0.1057    1.8403    0.0000 O   0  0  0  0  0  0  0  0  0  0  0  0
    2.6614    2.3072    0.0000 C   0  0  0  0  0  0  0  0  0  0  0  0
    2.3918    3.7828    0.0000 O   0  0  0  0  0  0  0  0  0  0  0  0
  1  2  1  0
  2  3  1  0
  2  4  1  0
  2  5  1  0
  5  6  1  0
  6  7  1  0
  6 15  1  0
  7  8  1  0
  8  9  2  0
  8 10  1  0
 10 11  1  0
 10 14  1  0
 11 12  1  0
 12 13  1  0
 13 14  1  0
 15 16  2  0
 15 17  1  0
 17 18  1  0
 18 19  1  0
 18 26  1  0
 19 20  1  0
 20 21  1  0
 20 24  1  0
 21 22  1  0
 22 23  1  0
 23 24  1  0
 24 25  2  0
 26 27  2  0
 26 28  1  0
 28 29  1  0
M  END
>  <s_m_entry_id>  (219) 
419

>  <s_m_entry_name>  (219) 
3C-like_protease_GHDDI_ligprep.38

>  <s_m_Source_Path>  (219) 
/home/jgilaber/drug_learning/drug_learning/datasets/SAR1/GHDDI

>  <s_m_Source_File>  (219) 
3C-like_protease_GHDDI_ligprep.sdf

>  <i_m_Source_File_Index>  (219) 
38

>  <s_m_subgroup_title>  (219) 
3C-like_protease_GHDDI_ligprep

>  <s_m_subgroupid>  (219) 
3C-like_protease_GHDDI_ligprep

>  <b_m_subgroup_collapsed>  (219) 
0

$$$$
13654
     RDKit          2D

 42 43  0  0  1  0  0  0  0  0999 V2000
   -0.6158    4.5375    0.0000 C   0  0  0  0  0  0  0  0  0  0  0  0
   -1.3453    3.2269    0.0000 C   0  0  0  0  0  0  0  0  0  0  0  0
   -2.8452    3.2033    0.0000 C   0  0  0  0  0  0  0  0  0  0  0  0
   -0.5750    1.9398    0.0000 C   0  0  0  0  0  0  0  0  0  0  0  0
    0.9248    1.9633    0.0000 N   0  0  0  0  0  0  0  0  0  0  0  0
    1.6543    3.2740    0.0000 C   0  0  0  0  0  0  0  0  0  0  0  0
    0.8840    4.5611    0.0000 O   0  0  0  0  0  0  0  0  0  0  0  0
    3.1541    3.2975    0.0000 C   0  0  0  0  0  0  0  0  0  0  0  0
    3.8836    4.6082    0.0000 C   0  0  0  0  0  0  0  0  0  0  0  0
    3.9244    2.0104    0.0000 N   0  0  0  0  0  0  0  0  0  0  0  0
    5.4242    2.0339    0.0000 C   0  0  0  0  0  0  0  0  0  0  0  0
    6.1537    3.3446    0.0000 O   0  0  0  0  0  0  0  0  0  0  0  0
    6.1945    0.7468    0.0000 C   0  0  0  0  0  0  0  0  0  0  0  0
    7.6943    0.7704    0.0000 C   0  0  0  0  0  0  0  0  0  0  0  0
    8.4646   -0.5167    0.0000 O   0  0  0  0  0  0  0  0  0  0  0  0
    5.4650   -0.5638    0.0000 N   0  0  0  0  0  0  0  0  0  0  0  0
    6.2353   -1.8509    0.0000 C   0  0  0  0  0  0  0  0  0  0  0  0
    7.7351   -1.8274    0.0000 O   0  0  0  0  0  0  0  0  0  0  0  0
    5.5058   -3.1616    0.0000 C   0  0  0  0  0  0  0  0  0  0  0  0
   -1.3046    0.6291    0.0000 C   0  0  0  0  0  0  0  0  0  0  0  0
   -2.8044    0.6056    0.0000 O   0  0  0  0  0  0  0  0  0  0  0  0
   -0.5343   -0.6580    0.0000 N   0  0  0  0  0  0  0  0  0  0  0  0
   -1.2638   -1.9686    0.0000 C   0  0  0  0  0  0  0  0  0  0  0  0
   -0.4935   -3.2557    0.0000 C   0  0  0  0  0  0  0  0  0  0  0  0
    1.0063   -3.2322    0.0000 C   0  0  0  0  0  0  0  0  0  0  0  0
    1.7766   -4.5193    0.0000 C   0  0  0  0  0  0  0  0  0  0  0  0
    3.2764   -4.4958    0.0000 C   0  0  0  0  0  0  0  0  0  0  0  0
    4.0060   -3.1851    0.0000 C   0  0  0  0  0  0  0  0  0  0  0  0
    3.2357   -1.8980    0.0000 C   0  0  0  0  0  0  0  0  0  0  0  0
    1.7358   -1.9216    0.0000 C   0  0  0  0  0  0  0  0  0  0  0  0
   -2.7636   -1.9922    0.0000 C   0  0  0  0  0  0  0  0  0  0  0  0
   -3.4931   -3.3028    0.0000 O   0  0  0  0  0  0  0  0  0  0  0  0
   -3.5339   -0.7051    0.0000 N   0  0  0  0  0  0  0  0  0  0  0  0
   -5.0337   -0.7286    0.0000 C   0  0  0  0  0  0  0  0  0  0  0  0
   -5.8040    0.5585    0.0000 C   0  0  0  0  0  0  0  0  0  0  0  0
   -7.3038    0.5350    0.0000 C   0  0  0  0  0  0  0  0  0  0  0  0
   -8.1663   -0.6923    0.0000 C   0  0  0  0  0  0  0  0  0  0  0  0
   -9.6000   -0.2512    0.0000 N   0  0  0  0  0  0  0  0  0  0  0  0
   -9.6236    1.2486    0.0000 C   0  0  0  0  0  0  0  0  0  0  0  0
   -8.2044    1.7345    0.0000 N   0  0  0  0  0  0  0  0  0  0  0  0
   -5.7632   -2.0393    0.0000 C   0  0  0  0  0  0  0  0  0  0  0  0
   -7.2630   -2.0628    0.0000 O   0  0  0  0  0  0  0  0  0  0  0  0
  1  2  1  0
  2  3  1  0
  2  4  1  0
  4  5  1  0
  4 20  1  0
  5  6  1  0
  6  7  2  0
  6  8  1  0
  8  9  1  0
  8 10  1  0
 10 11  1  0
 11 12  2  0
 11 13  1  0
 13 14  1  0
 13 16  1  0
 14 15  1  0
 16 17  1  0
 17 18  2  0
 17 19  1  0
 20 21  2  0
 20 22  1  0
 22 23  1  0
 23 24  1  0
 23 31  1  0
 24 25  1  0
 25 26  1  0
 25 30  1  0
 26 27  1  0
 27 28  1  0
 28 29  1  0
 29 30  1  0
 31 32  2  0
 31 33  1  0
 33 34  1  0
 34 35  1  0
 34 41  1  0
 35 36  1  0
 36 37  2  0
 36 40  1  0
 37 38  1  0
 38 39  1  0
 39 40  2  0
 41 42  2  0
M  END
>  <s_m_entry_id>  (220) 
426

>  <s_m_entry_name>  (220) 
3C-like_protease_GHDDI_ligprep.45

>  <s_m_Source_Path>  (220) 
/home/jgilaber/drug_learning/drug_learning/datasets/SAR1/GHDDI

>  <s_m_Source_File>  (220) 
3C-like_protease_GHDDI_ligprep.sdf

>  <i_m_Source_File_Index>  (220) 
45

>  <s_m_subgroup_title>  (220) 
3C-like_protease_GHDDI_ligprep

>  <s_m_subgroupid>  (220) 
3C-like_protease_GHDDI_ligprep

>  <b_m_subgroup_collapsed>  (220) 
0

$$$$
13655
     RDKit          2D

 35 37  0  0  1  0  0  0  0  0999 V2000
    3.1441   -4.5253    0.0000 C   0  0  0  0  0  0  0  0  0  0  0  0
    3.0865   -3.0264    0.0000 O   0  0  0  0  0  0  0  0  0  0  0  0
    4.3557   -2.2271    0.0000 C   0  0  0  0  0  0  0  0  0  0  0  0
    5.6826   -2.9266    0.0000 C   0  0  0  0  0  0  0  0  0  0  0  0
    6.9519   -2.1273    0.0000 C   0  0  0  0  0  0  0  0  0  0  0  0
    6.8943   -0.6284    0.0000 C   0  0  0  0  0  0  0  0  0  0  0  0
    5.5674    0.0712    0.0000 C   0  0  0  0  0  0  0  0  0  0  0  0
    5.1994    1.5253    0.0000 N   0  0  0  0  0  0  0  0  0  0  0  0
    3.7027    1.6247    0.0000 C   0  0  0  0  0  0  0  0  0  0  0  0
    3.1457    0.2320    0.0000 C   0  0  0  0  0  0  0  0  0  0  0  0
    4.2981   -0.7282    0.0000 C   0  0  0  0  0  0  0  0  0  0  0  0
    2.9034    2.8940    0.0000 C   0  0  0  0  0  0  0  0  0  0  0  0
    3.6029    4.2209    0.0000 O   0  0  0  0  0  0  0  0  0  0  0  0
    1.4045    2.8364    0.0000 N   0  0  0  0  0  0  0  0  0  0  0  0
    0.6051    4.1057    0.0000 C   0  0  0  0  0  0  0  0  0  0  0  0
    0.7049    1.5095    0.0000 C   0  0  0  0  0  0  0  0  0  0  0  0
    1.5043    0.2402    0.0000 C   0  0  0  0  0  0  0  0  0  0  0  0
    0.8047   -1.0867    0.0000 C   0  0  0  0  0  0  0  0  0  0  0  0
    1.6040   -2.3559    0.0000 C   0  0  0  0  0  0  0  0  0  0  0  0
   -0.6942   -1.1443    0.0000 C   0  0  0  0  0  0  0  0  0  0  0  0
   -0.7940    1.4519    0.0000 C   0  0  0  0  0  0  0  0  0  0  0  0
   -1.5933    2.7212    0.0000 O   0  0  0  0  0  0  0  0  0  0  0  0
   -1.4935    0.1250    0.0000 N   0  0  0  0  0  0  0  0  0  0  0  0
   -2.9924    0.0674    0.0000 C   0  0  0  0  0  0  0  0  0  0  0  0
   -3.6920   -1.2595    0.0000 C   0  0  0  0  0  0  0  0  0  0  0  0
   -5.1909   -1.3171    0.0000 C   0  0  0  0  0  0  0  0  0  0  0  0
   -6.1185   -0.1383    0.0000 C   0  0  0  0  0  0  0  0  0  0  0  0
   -7.5262   -0.6563    0.0000 C   0  0  0  0  0  0  0  0  0  0  0  0
   -7.4686   -2.1552    0.0000 N   0  0  0  0  0  0  0  0  0  0  0  0
   -6.0253   -2.5636    0.0000 C   0  0  0  0  0  0  0  0  0  0  0  0
   -5.5073   -3.9713    0.0000 O   0  0  0  0  0  0  0  0  0  0  0  0
   -3.7918    1.3367    0.0000 C   0  0  0  0  0  0  0  0  0  0  0  0
   -5.2906    1.2791    0.0000 O   0  0  0  0  0  0  0  0  0  0  0  0
   -3.0922    2.6636    0.0000 C   0  0  0  0  0  0  0  0  0  0  0  0
   -3.8915    3.9328    0.0000 O   0  0  0  0  0  0  0  0  0  0  0  0
  1  2  1  0
  2  3  1  0
  3  4  2  0
  3 11  1  0
  4  5  1  0
  5  6  2  0
  6  7  1  0
  7  8  1  0
  7 11  2  0
  8  9  1  0
  9 10  2  0
  9 12  1  0
 10 11  1  0
 12 13  2  0
 12 14  1  0
 14 15  1  0
 14 16  1  0
 16 17  1  0
 16 21  1  0
 17 18  1  0
 18 19  1  0
 18 20  1  0
 21 22  2  0
 21 23  1  0
 23 24  1  0
 24 25  1  0
 24 32  1  0
 25 26  1  0
 26 27  1  0
 26 30  1  0
 27 28  1  0
 28 29  1  0
 29 30  1  0
 30 31  2  0
 32 33  2  0
 32 34  1  0
 34 35  1  0
M  END
>  <s_m_entry_id>  (221) 
429

>  <s_m_entry_name>  (221) 
3C-like_protease_GHDDI_ligprep.48

>  <s_m_Source_Path>  (221) 
/home/jgilaber/drug_learning/drug_learning/datasets/SAR1/GHDDI

>  <s_m_Source_File>  (221) 
3C-like_protease_GHDDI_ligprep.sdf

>  <i_m_Source_File_Index>  (221) 
48

>  <s_m_subgroup_title>  (221) 
3C-like_protease_GHDDI_ligprep

>  <s_m_subgroupid>  (221) 
3C-like_protease_GHDDI_ligprep

>  <b_m_subgroup_collapsed>  (221) 
0

$$$$
13656
     RDKit          2D

 43 46  0  0  1  0  0  0  0  0999 V2000
  -10.6164    0.3358    0.0000 C   0  0  0  0  0  0  0  0  0  0  0  0
   -9.1263    0.1642    0.0000 O   0  0  0  0  0  0  0  0  0  0  0  0
   -8.2326    1.3689    0.0000 C   0  0  0  0  0  0  0  0  0  0  0  0
   -8.8290    2.7452    0.0000 C   0  0  0  0  0  0  0  0  0  0  0  0
   -7.9353    3.9499    0.0000 C   0  0  0  0  0  0  0  0  0  0  0  0
   -6.4452    3.7783    0.0000 C   0  0  0  0  0  0  0  0  0  0  0  0
   -5.8487    2.4019    0.0000 C   0  0  0  0  0  0  0  0  0  0  0  0
   -4.4268    1.9242    0.0000 N   0  0  0  0  0  0  0  0  0  0  0  0
   -4.4417    0.4243    0.0000 C   0  0  0  0  0  0  0  0  0  0  0  0
   -5.8729   -0.0250    0.0000 C   0  0  0  0  0  0  0  0  0  0  0  0
   -6.7424    1.1972    0.0000 C   0  0  0  0  0  0  0  0  0  0  0  0
   -3.2371   -0.4694    0.0000 C   0  0  0  0  0  0  0  0  0  0  0  0
   -1.8607    0.1271    0.0000 O   0  0  0  0  0  0  0  0  0  0  0  0
   -3.4087   -1.9595    0.0000 N   0  0  0  0  0  0  0  0  0  0  0  0
   -2.2040   -2.8532    0.0000 C   0  0  0  0  0  0  0  0  0  0  0  0
   -2.3756   -4.3434    0.0000 C   0  0  0  0  0  0  0  0  0  0  0  0
   -1.1709   -5.2371    0.0000 C   0  0  0  0  0  0  0  0  0  0  0  0
   -1.3425   -6.7273    0.0000 C   0  0  0  0  0  0  0  0  0  0  0  0
    0.2054   -4.6407    0.0000 C   0  0  0  0  0  0  0  0  0  0  0  0
   -0.8277   -2.2568    0.0000 C   0  0  0  0  0  0  0  0  0  0  0  0
   -0.6560   -0.7667    0.0000 O   0  0  0  0  0  0  0  0  0  0  0  0
    0.3770   -3.1505    0.0000 N   0  0  0  0  0  0  0  0  0  0  0  0
    1.7533   -2.5541    0.0000 C   0  0  0  0  0  0  0  0  0  0  0  0
    2.9580   -3.4478    0.0000 C   0  0  0  0  0  0  0  0  0  0  0  0
    4.3344   -2.8513    0.0000 C   0  0  0  0  0  0  0  0  0  0  0  0
    4.6608   -1.3873    0.0000 C   0  0  0  0  0  0  0  0  0  0  0  0
    6.1541   -1.2453    0.0000 C   0  0  0  0  0  0  0  0  0  0  0  0
    6.7505   -2.6217    0.0000 N   0  0  0  0  0  0  0  0  0  0  0  0
    5.6259   -3.6142    0.0000 C   0  0  0  0  0  0  0  0  0  0  0  0
    5.7678   -5.1075    0.0000 O   0  0  0  0  0  0  0  0  0  0  0  0
    1.9250   -1.0639    0.0000 C   0  0  0  0  0  0  0  0  0  0  0  0
    0.7203   -0.1702    0.0000 O   0  0  0  0  0  0  0  0  0  0  0  0
    3.3013   -0.4675    0.0000 C   0  0  0  0  0  0  0  0  0  0  0  0
    3.4729    1.0227    0.0000 O   0  0  0  0  0  0  0  0  0  0  0  0
    4.8492    1.6191    0.0000 C   0  0  0  0  0  0  0  0  0  0  0  0
    6.0539    0.7254    0.0000 O   0  0  0  0  0  0  0  0  0  0  0  0
    5.0209    3.1093    0.0000 C   0  0  0  0  0  0  0  0  0  0  0  0
    6.3972    3.7057    0.0000 C   0  0  0  0  0  0  0  0  0  0  0  0
    6.5688    5.1959    0.0000 C   0  0  0  0  0  0  0  0  0  0  0  0
    5.3641    6.0896    0.0000 C   0  0  0  0  0  0  0  0  0  0  0  0
    5.5357    7.5797    0.0000 C   0  0  0  0  0  0  0  0  0  0  0  0
    3.9878    5.4931    0.0000 C   0  0  0  0  0  0  0  0  0  0  0  0
    3.8162    4.0030    0.0000 C   0  0  0  0  0  0  0  0  0  0  0  0
  1  2  1  0
  2  3  1  0
  3  4  2  0
  3 11  1  0
  4  5  1  0
  5  6  2  0
  6  7  1  0
  7  8  1  0
  7 11  2  0
  8  9  1  0
  9 10  2  0
  9 12  1  0
 10 11  1  0
 12 13  2  0
 12 14  1  0
 14 15  1  0
 15 16  1  0
 15 20  1  0
 16 17  1  0
 17 18  1  0
 17 19  1  0
 20 21  2  0
 20 22  1  0
 22 23  1  0
 23 24  1  0
 23 31  1  0
 24 25  1  0
 25 26  1  0
 25 29  1  0
 26 27  1  0
 27 28  1  0
 28 29  1  0
 29 30  2  0
 31 32  2  0
 31 33  1  0
 33 34  1  0
 34 35  1  0
 35 36  2  0
 35 37  1  0
 37 38  2  0
 37 43  1  0
 38 39  1  0
 39 40  2  0
 40 41  1  0
 40 42  1  0
 42 43  2  0
M  END
>  <s_m_entry_id>  (222) 
430

>  <s_m_entry_name>  (222) 
3C-like_protease_GHDDI_ligprep.49

>  <s_m_Source_Path>  (222) 
/home/jgilaber/drug_learning/drug_learning/datasets/SAR1/GHDDI

>  <s_m_Source_File>  (222) 
3C-like_protease_GHDDI_ligprep.sdf

>  <i_m_Source_File_Index>  (222) 
49

>  <s_m_subgroup_title>  (222) 
3C-like_protease_GHDDI_ligprep

>  <s_m_subgroupid>  (222) 
3C-like_protease_GHDDI_ligprep

>  <b_m_subgroup_collapsed>  (222) 
0

$$$$
13657
     RDKit          2D

 38 40  0  0  1  0  0  0  0  0999 V2000
   -9.8943   -1.2714    0.0000 C   0  0  0  0  0  0  0  0  0  0  0  0
   -8.4064   -1.0809    0.0000 O   0  0  0  0  0  0  0  0  0  0  0  0
   -7.8275    0.3029    0.0000 C   0  0  0  0  0  0  0  0  0  0  0  0
   -8.7365    1.4961    0.0000 C   0  0  0  0  0  0  0  0  0  0  0  0
   -8.1575    2.8799    0.0000 C   0  0  0  0  0  0  0  0  0  0  0  0
   -6.6697    3.0704    0.0000 C   0  0  0  0  0  0  0  0  0  0  0  0
   -5.7608    1.8772    0.0000 C   0  0  0  0  0  0  0  0  0  0  0  0
   -4.2658    1.7542    0.0000 N   0  0  0  0  0  0  0  0  0  0  0  0
   -3.9208    0.2944    0.0000 C   0  0  0  0  0  0  0  0  0  0  0  0
   -5.2025   -0.4848    0.0000 C   0  0  0  0  0  0  0  0  0  0  0  0
   -6.3397    0.4934    0.0000 C   0  0  0  0  0  0  0  0  0  0  0  0
   -2.5370   -0.2845    0.0000 C   0  0  0  0  0  0  0  0  0  0  0  0
   -1.3438    0.6244    0.0000 O   0  0  0  0  0  0  0  0  0  0  0  0
   -2.3465   -1.7723    0.0000 N   0  0  0  0  0  0  0  0  0  0  0  0
   -0.9627   -2.3513    0.0000 C   0  0  0  0  0  0  0  0  0  0  0  0
   -0.7722   -3.8391    0.0000 C   0  0  0  0  0  0  0  0  0  0  0  0
    0.6116   -4.4180    0.0000 C   0  0  0  0  0  0  0  0  0  0  0  0
    0.8021   -5.9059    0.0000 C   0  0  0  0  0  0  0  0  0  0  0  0
    1.8049   -3.5091    0.0000 C   0  0  0  0  0  0  0  0  0  0  0  0
    0.2306   -1.4423    0.0000 C   0  0  0  0  0  0  0  0  0  0  0  0
    0.0400    0.0455    0.0000 O   0  0  0  0  0  0  0  0  0  0  0  0
    1.6143   -2.0212    0.0000 N   0  0  0  0  0  0  0  0  0  0  0  0
    2.8076   -1.1123    0.0000 C   0  0  0  0  0  0  0  0  0  0  0  0
    4.1914   -1.6912    0.0000 C   0  0  0  0  0  0  0  0  0  0  0  0
    5.3846   -0.7823    0.0000 C   0  0  0  0  0  0  0  0  0  0  0  0
    5.3507    0.7173    0.0000 C   0  0  0  0  0  0  0  0  0  0  0  0
    6.7664    1.2130    0.0000 C   0  0  0  0  0  0  0  0  0  0  0  0
    7.6753    0.0198    0.0000 N   0  0  0  0  0  0  0  0  0  0  0  0
    6.8213   -1.2134    0.0000 C   0  0  0  0  0  0  0  0  0  0  0  0
    7.3170   -2.6291    0.0000 O   0  0  0  0  0  0  0  0  0  0  0  0
    2.6171    0.3755    0.0000 C   0  0  0  0  0  0  0  0  0  0  0  0
    1.2333    0.9545    0.0000 O   0  0  0  0  0  0  0  0  0  0  0  0
    3.8103    1.2845    0.0000 C   0  0  0  0  0  0  0  0  0  0  0  0
    3.6198    2.7723    0.0000 N   0  0  0  0  0  0  0  0  0  0  0  0
    4.8130    3.6812    0.0000 S   0  0  0  0  0  0  0  0  0  0  0  0
    5.7220    2.4880    0.0000 O   0  0  0  0  0  0  0  0  0  0  0  0
    3.9041    4.8745    0.0000 O   0  0  0  0  0  0  0  0  0  0  0  0
    6.0063    4.5902    0.0000 C   0  0  0  0  0  0  0  0  0  0  0  0
  1  2  1  0
  2  3  1  0
  3  4  2  0
  3 11  1  0
  4  5  1  0
  5  6  2  0
  6  7  1  0
  7  8  1  0
  7 11  2  0
  8  9  1  0
  9 10  2  0
  9 12  1  0
 10 11  1  0
 12 13  2  0
 12 14  1  0
 14 15  1  0
 15 16  1  0
 15 20  1  0
 16 17  1  0
 17 18  1  0
 17 19  1  0
 20 21  2  0
 20 22  1  0
 22 23  1  0
 23 24  1  0
 23 31  1  0
 24 25  1  0
 25 26  1  0
 25 29  1  0
 26 27  1  0
 27 28  1  0
 28 29  1  0
 29 30  2  0
 31 32  2  0
 31 33  1  0
 33 34  1  0
 34 35  1  0
 35 36  2  0
 35 37  2  0
 35 38  1  0
M  END
>  <s_m_entry_id>  (223) 
431

>  <s_m_entry_name>  (223) 
3C-like_protease_GHDDI_ligprep.50

>  <s_m_Source_Path>  (223) 
/home/jgilaber/drug_learning/drug_learning/datasets/SAR1/GHDDI

>  <s_m_Source_File>  (223) 
3C-like_protease_GHDDI_ligprep.sdf

>  <i_m_Source_File_Index>  (223) 
50

>  <s_m_subgroup_title>  (223) 
3C-like_protease_GHDDI_ligprep

>  <s_m_subgroupid>  (223) 
3C-like_protease_GHDDI_ligprep

>  <b_m_subgroup_collapsed>  (223) 
0

$$$$
13658
     RDKit          2D

 34 36  0  0  1  0  0  0  0  0999 V2000
   -4.0904   -4.7193    0.0000 C   0  0  0  0  0  0  0  0  0  0  0  0
   -3.0377   -3.6508    0.0000 O   0  0  0  0  0  0  0  0  0  0  0  0
   -3.4366   -2.2048    0.0000 C   0  0  0  0  0  0  0  0  0  0  0  0
   -2.3839   -1.1363    0.0000 C   0  0  0  0  0  0  0  0  0  0  0  0
   -0.9321   -1.5137    0.0000 O   0  0  0  0  0  0  0  0  0  0  0  0
   -2.7828    0.3097    0.0000 C   0  0  0  0  0  0  0  0  0  0  0  0
   -4.2346    0.6871    0.0000 C   0  0  0  0  0  0  0  0  0  0  0  0
   -5.2873   -0.3814    0.0000 C   0  0  0  0  0  0  0  0  0  0  0  0
   -5.0417   -1.8611    0.0000 C   0  0  0  0  0  0  0  0  0  0  0  0
   -6.3731   -2.5520    0.0000 C   0  0  0  0  0  0  0  0  0  0  0  0
   -7.4416   -1.4992    0.0000 N   0  0  0  0  0  0  0  0  0  0  0  0
   -6.7706   -0.1577    0.0000 C   0  0  0  0  0  0  0  0  0  0  0  0
   -7.4615    1.1737    0.0000 O   0  0  0  0  0  0  0  0  0  0  0  0
   -1.7301    1.3782    0.0000 N   0  0  0  0  0  0  0  0  0  0  0  0
   -0.2784    1.0007    0.0000 C   0  0  0  0  0  0  0  0  0  0  0  0
    0.1206   -0.4452    0.0000 O   0  0  0  0  0  0  0  0  0  0  0  0
    0.7744    2.0692    0.0000 C   0  0  0  0  0  0  0  0  0  0  0  0
    0.3754    3.5152    0.0000 C   0  0  0  0  0  0  0  0  0  0  0  0
   -1.0763    3.8927    0.0000 C   0  0  0  0  0  0  0  0  0  0  0  0
   -0.6988    5.3444    0.0000 C   0  0  0  0  0  0  0  0  0  0  0  0
   -1.4538    2.4409    0.0000 C   0  0  0  0  0  0  0  0  0  0  0  0
   -2.5280    4.2701    0.0000 C   0  0  0  0  0  0  0  0  0  0  0  0
    2.2261    1.6918    0.0000 N   0  0  0  0  0  0  0  0  0  0  0  0
    2.6251    0.2458    0.0000 C   0  0  0  0  0  0  0  0  0  0  0  0
    1.5723   -0.8227    0.0000 O   0  0  0  0  0  0  0  0  0  0  0  0
    4.0768   -0.1317    0.0000 C   0  0  0  0  0  0  0  0  0  0  0  0
    4.6248   -1.5280    0.0000 C   0  0  0  0  0  0  0  0  0  0  0  0
    6.1221   -1.4384    0.0000 C   0  0  0  0  0  0  0  0  0  0  0  0
    7.1906   -2.4912    0.0000 C   0  0  0  0  0  0  0  0  0  0  0  0
    8.6365   -2.0922    0.0000 C   0  0  0  0  0  0  0  0  0  0  0  0
    9.0140   -0.6405    0.0000 C   0  0  0  0  0  0  0  0  0  0  0  0
    7.9455    0.4123    0.0000 C   0  0  0  0  0  0  0  0  0  0  0  0
    6.4995    0.0133    0.0000 C   0  0  0  0  0  0  0  0  0  0  0  0
    5.2355    0.8209    0.0000 N   0  0  0  0  0  0  0  0  0  0  0  0
  1  2  1  0
  2  3  1  0
  3  4  1  0
  4  5  2  0
  4  6  1  0
  6  7  1  0
  6 14  1  0
  7  8  1  0
  8  9  1  0
  8 12  1  0
  9 10  1  0
 10 11  1  0
 11 12  1  0
 12 13  2  0
 14 15  1  0
 15 16  2  0
 15 17  1  0
 17 18  1  0
 17 23  1  0
 18 19  1  0
 19 20  1  0
 19 21  1  0
 19 22  1  0
 23 24  1  0
 24 25  2  0
 24 26  1  0
 26 27  2  0
 26 34  1  0
 27 28  1  0
 28 29  2  0
 28 33  1  0
 29 30  1  0
 30 31  2  0
 31 32  1  0
 32 33  2  0
 33 34  1  0
M  END
>  <s_m_entry_id>  (224) 
432

>  <s_m_entry_name>  (224) 
3C-like_protease_GHDDI_ligprep.51

>  <s_m_Source_Path>  (224) 
/home/jgilaber/drug_learning/drug_learning/datasets/SAR1/GHDDI

>  <s_m_Source_File>  (224) 
3C-like_protease_GHDDI_ligprep.sdf

>  <i_m_Source_File_Index>  (224) 
51

>  <s_m_subgroup_title>  (224) 
3C-like_protease_GHDDI_ligprep

>  <s_m_subgroupid>  (224) 
3C-like_protease_GHDDI_ligprep

>  <b_m_subgroup_collapsed>  (224) 
0

$$$$
13659
     RDKit          2D

 35 37  0  0  1  0  0  0  0  0999 V2000
   -3.8130   -5.8472    0.0000 C   0  0  0  0  0  0  0  0  0  0  0  0
   -4.1562   -4.3870    0.0000 C   0  0  0  0  0  0  0  0  0  0  0  0
   -3.0632   -3.3596    0.0000 O   0  0  0  0  0  0  0  0  0  0  0  0
   -3.4065   -1.8994    0.0000 C   0  0  0  0  0  0  0  0  0  0  0  0
   -2.3135   -0.8721    0.0000 C   0  0  0  0  0  0  0  0  0  0  0  0
   -0.8774   -1.3049    0.0000 O   0  0  0  0  0  0  0  0  0  0  0  0
   -2.6568    0.5881    0.0000 C   0  0  0  0  0  0  0  0  0  0  0  0
   -4.0930    1.0210    0.0000 C   0  0  0  0  0  0  0  0  0  0  0  0
   -5.1859   -0.0064    0.0000 C   0  0  0  0  0  0  0  0  0  0  0  0
   -4.9972   -1.4945    0.0000 C   0  0  0  0  0  0  0  0  0  0  0  0
   -6.3541   -2.1338    0.0000 C   0  0  0  0  0  0  0  0  0  0  0  0
   -7.3815   -1.0409    0.0000 N   0  0  0  0  0  0  0  0  0  0  0  0
   -6.6595    0.2739    0.0000 C   0  0  0  0  0  0  0  0  0  0  0  0
   -7.2988    1.6309    0.0000 O   0  0  0  0  0  0  0  0  0  0  0  0
   -1.5638    1.6155    0.0000 N   0  0  0  0  0  0  0  0  0  0  0  0
   -0.1276    1.1826    0.0000 C   0  0  0  0  0  0  0  0  0  0  0  0
    0.2156   -0.2776    0.0000 O   0  0  0  0  0  0  0  0  0  0  0  0
    0.9653    2.2100    0.0000 C   0  0  0  0  0  0  0  0  0  0  0  0
    0.6221    3.6702    0.0000 C   0  0  0  0  0  0  0  0  0  0  0  0
   -0.8141    4.1030    0.0000 C   0  0  0  0  0  0  0  0  0  0  0  0
   -0.3813    5.5392    0.0000 C   0  0  0  0  0  0  0  0  0  0  0  0
   -1.2470    2.6668    0.0000 C   0  0  0  0  0  0  0  0  0  0  0  0
   -2.2503    4.5359    0.0000 C   0  0  0  0  0  0  0  0  0  0  0  0
    2.4015    1.7771    0.0000 N   0  0  0  0  0  0  0  0  0  0  0  0
    2.7447    0.3169    0.0000 C   0  0  0  0  0  0  0  0  0  0  0  0
    1.6518   -0.7104    0.0000 O   0  0  0  0  0  0  0  0  0  0  0  0
    4.1809   -0.1159    0.0000 C   0  0  0  0  0  0  0  0  0  0  0  0
    4.6749   -1.5322    0.0000 C   0  0  0  0  0  0  0  0  0  0  0  0
    6.1746   -1.5001    0.0000 C   0  0  0  0  0  0  0  0  0  0  0  0
    7.2019   -2.5930    0.0000 C   0  0  0  0  0  0  0  0  0  0  0  0
    8.6621   -2.2498    0.0000 C   0  0  0  0  0  0  0  0  0  0  0  0
    9.0950   -0.8136    0.0000 C   0  0  0  0  0  0  0  0  0  0  0  0
    8.0676    0.2794    0.0000 C   0  0  0  0  0  0  0  0  0  0  0  0
    6.6074   -0.0639    0.0000 C   0  0  0  0  0  0  0  0  0  0  0  0
    5.3753    0.7916    0.0000 N   0  0  0  0  0  0  0  0  0  0  0  0
  1  2  1  0
  2  3  1  0
  3  4  1  0
  4  5  1  0
  5  6  2  0
  5  7  1  0
  7  8  1  0
  7 15  1  0
  8  9  1  0
  9 10  1  0
  9 13  1  0
 10 11  1  0
 11 12  1  0
 12 13  1  0
 13 14  2  0
 15 16  1  0
 16 17  2  0
 16 18  1  0
 18 19  1  0
 18 24  1  0
 19 20  1  0
 20 21  1  0
 20 22  1  0
 20 23  1  0
 24 25  1  0
 25 26  2  0
 25 27  1  0
 27 28  2  0
 27 35  1  0
 28 29  1  0
 29 30  2  0
 29 34  1  0
 30 31  1  0
 31 32  2  0
 32 33  1  0
 33 34  2  0
 34 35  1  0
M  END
>  <s_m_entry_id>  (225) 
433

>  <s_m_entry_name>  (225) 
3C-like_protease_GHDDI_ligprep.52

>  <s_m_Source_Path>  (225) 
/home/jgilaber/drug_learning/drug_learning/datasets/SAR1/GHDDI

>  <s_m_Source_File>  (225) 
3C-like_protease_GHDDI_ligprep.sdf

>  <i_m_Source_File_Index>  (225) 
52

>  <s_m_subgroup_title>  (225) 
3C-like_protease_GHDDI_ligprep

>  <s_m_subgroupid>  (225) 
3C-like_protease_GHDDI_ligprep

>  <b_m_subgroup_collapsed>  (225) 
0

$$$$
13660
     RDKit          2D

 38 39  0  0  1  0  0  0  0  0999 V2000
    1.0535    3.9412    0.0000 C   0  0  0  0  0  0  0  0  0  0  0  0
    0.0761    2.8033    0.0000 C   0  0  0  0  0  0  0  0  0  0  0  0
   -1.3980    3.0809    0.0000 C   0  0  0  0  0  0  0  0  0  0  0  0
    0.5727    1.3880    0.0000 C   0  0  0  0  0  0  0  0  0  0  0  0
    2.0468    1.1104    0.0000 N   0  0  0  0  0  0  0  0  0  0  0  0
    3.0243    2.2483    0.0000 C   0  0  0  0  0  0  0  0  0  0  0  0
    2.5276    3.6636    0.0000 O   0  0  0  0  0  0  0  0  0  0  0  0
    4.4984    1.9707    0.0000 C   0  0  0  0  0  0  0  0  0  0  0  0
    4.9950    0.5553    0.0000 N   0  0  0  0  0  0  0  0  0  0  0  0
    6.4691    0.2778    0.0000 C   0  0  0  0  0  0  0  0  0  0  0  0
    7.4466    1.4156    0.0000 O   0  0  0  0  0  0  0  0  0  0  0  0
    6.9658   -1.1376    0.0000 C   0  0  0  0  0  0  0  0  0  0  0  0
    5.4758    3.1086    0.0000 C   0  0  0  0  0  0  0  0  0  0  0  0
    6.9499    2.8310    0.0000 C   0  0  0  0  0  0  0  0  0  0  0  0
    4.9791    4.5239    0.0000 O   0  0  0  0  0  0  0  0  0  0  0  0
   -0.4047    0.2501    0.0000 C   0  0  0  0  0  0  0  0  0  0  0  0
   -1.8788    0.5277    0.0000 O   0  0  0  0  0  0  0  0  0  0  0  0
    0.0920   -1.1653    0.0000 N   0  0  0  0  0  0  0  0  0  0  0  0
   -0.8854   -2.3031    0.0000 C   0  0  0  0  0  0  0  0  0  0  0  0
   -0.3887   -3.7185    0.0000 C   0  0  0  0  0  0  0  0  0  0  0  0
    1.0854   -3.9960    0.0000 C   0  0  0  0  0  0  0  0  0  0  0  0
    1.5821   -5.4114    0.0000 C   0  0  0  0  0  0  0  0  0  0  0  0
    3.0562   -5.6889    0.0000 C   0  0  0  0  0  0  0  0  0  0  0  0
    4.0336   -4.5511    0.0000 C   0  0  0  0  0  0  0  0  0  0  0  0
    3.5369   -3.1357    0.0000 C   0  0  0  0  0  0  0  0  0  0  0  0
    2.0628   -2.8582    0.0000 C   0  0  0  0  0  0  0  0  0  0  0  0
   -2.3595   -2.0256    0.0000 C   0  0  0  0  0  0  0  0  0  0  0  0
   -3.3369   -3.1634    0.0000 O   0  0  0  0  0  0  0  0  0  0  0  0
   -2.8562   -0.6102    0.0000 N   0  0  0  0  0  0  0  0  0  0  0  0
   -4.3303   -0.3326    0.0000 C   0  0  0  0  0  0  0  0  0  0  0  0
   -4.8270    1.0827    0.0000 C   0  0  0  0  0  0  0  0  0  0  0  0
   -6.3011    1.3603    0.0000 C   0  0  0  0  0  0  0  0  0  0  0  0
   -7.3920    0.3308    0.0000 C   0  0  0  0  0  0  0  0  0  0  0  0
   -8.7082    1.0503    0.0000 N   0  0  0  0  0  0  0  0  0  0  0  0
   -8.4307    2.5244    0.0000 C   0  0  0  0  0  0  0  0  0  0  0  0
   -6.9430    2.7160    0.0000 N   0  0  0  0  0  0  0  0  0  0  0  0
   -5.3077   -1.4705    0.0000 C   0  0  0  0  0  0  0  0  0  0  0  0
   -6.7818   -1.1929    0.0000 O   0  0  0  0  0  0  0  0  0  0  0  0
  1  2  1  0
  2  3  1  0
  2  4  1  0
  4  5  1  0
  4 16  1  0
  5  6  1  0
  6  7  2  0
  6  8  1  0
  8  9  1  0
  8 13  1  0
  9 10  1  0
 10 11  2  0
 10 12  1  0
 13 14  1  0
 13 15  1  0
 16 17  2  0
 16 18  1  0
 18 19  1  0
 19 20  1  0
 19 27  1  0
 20 21  1  0
 21 22  1  0
 21 26  1  0
 22 23  1  0
 23 24  1  0
 24 25  1  0
 25 26  1  0
 27 28  2  0
 27 29  1  0
 29 30  1  0
 30 31  1  0
 30 37  1  0
 31 32  1  0
 32 33  2  0
 32 36  1  0
 33 34  1  0
 34 35  1  0
 35 36  2  0
 37 38  2  0
M  END
>  <s_m_entry_id>  (226) 
434

>  <s_m_entry_name>  (226) 
3C-like_protease_GHDDI_ligprep.53

>  <s_m_Source_Path>  (226) 
/home/jgilaber/drug_learning/drug_learning/datasets/SAR1/GHDDI

>  <s_m_Source_File>  (226) 
3C-like_protease_GHDDI_ligprep.sdf

>  <i_m_Source_File_Index>  (226) 
53

>  <s_m_subgroup_title>  (226) 
3C-like_protease_GHDDI_ligprep

>  <s_m_subgroupid>  (226) 
3C-like_protease_GHDDI_ligprep

>  <b_m_subgroup_collapsed>  (226) 
0

$$$$
13661
     RDKit          2D

 37 40  0  0  1  0  0  0  0  0999 V2000
   -9.3446   -2.1431    0.0000 C   0  0  0  0  0  0  0  0  0  0  0  0
   -7.9160   -1.6858    0.0000 O   0  0  0  0  0  0  0  0  0  0  0  0
   -7.5977   -0.2200    0.0000 C   0  0  0  0  0  0  0  0  0  0  0  0
   -8.7080    0.7886    0.0000 C   0  0  0  0  0  0  0  0  0  0  0  0
   -8.3897    2.2544    0.0000 C   0  0  0  0  0  0  0  0  0  0  0  0
   -6.9611    2.7117    0.0000 C   0  0  0  0  0  0  0  0  0  0  0  0
   -5.8508    1.7031    0.0000 C   0  0  0  0  0  0  0  0  0  0  0  0
   -4.3583    1.8534    0.0000 N   0  0  0  0  0  0  0  0  0  0  0  0
   -3.7542    0.4804    0.0000 C   0  0  0  0  0  0  0  0  0  0  0  0
   -4.8733   -0.5184    0.0000 C   0  0  0  0  0  0  0  0  0  0  0  0
   -6.1691    0.2373    0.0000 C   0  0  0  0  0  0  0  0  0  0  0  0
   -2.2884    0.1621    0.0000 C   0  0  0  0  0  0  0  0  0  0  0  0
   -1.2798    1.2724    0.0000 O   0  0  0  0  0  0  0  0  0  0  0  0
   -1.8311   -1.2665    0.0000 N   0  0  0  0  0  0  0  0  0  0  0  0
   -0.3653   -1.5848    0.0000 C   0  0  0  0  0  0  0  0  0  0  0  0
    0.0920   -3.0134    0.0000 C   0  0  0  0  0  0  0  0  0  0  0  0
    1.5578   -3.3317    0.0000 C   0  0  0  0  0  0  0  0  0  0  0  0
    2.0151   -4.7603    0.0000 C   0  0  0  0  0  0  0  0  0  0  0  0
    3.4809   -5.0786    0.0000 C   0  0  0  0  0  0  0  0  0  0  0  0
    4.4895   -3.9683    0.0000 C   0  0  0  0  0  0  0  0  0  0  0  0
    4.0322   -2.5397    0.0000 C   0  0  0  0  0  0  0  0  0  0  0  0
    2.5664   -2.2214    0.0000 C   0  0  0  0  0  0  0  0  0  0  0  0
    0.6433   -0.4745    0.0000 C   0  0  0  0  0  0  0  0  0  0  0  0
    0.1860    0.9541    0.0000 O   0  0  0  0  0  0  0  0  0  0  0  0
    2.1091   -0.7928    0.0000 N   0  0  0  0  0  0  0  0  0  0  0  0
    3.1177    0.3175    0.0000 C   0  0  0  0  0  0  0  0  0  0  0  0
    4.5835   -0.0008    0.0000 C   0  0  0  0  0  0  0  0  0  0  0  0
    5.5921    1.1095    0.0000 C   0  0  0  0  0  0  0  0  0  0  0  0
    5.2867    2.5781    0.0000 C   0  0  0  0  0  0  0  0  0  0  0  0
    6.5890    3.3224    0.0000 C   0  0  0  0  0  0  0  0  0  0  0  0
    7.6993    2.3138    0.0000 N   0  0  0  0  0  0  0  0  0  0  0  0
    7.0832    0.9462    0.0000 C   0  0  0  0  0  0  0  0  0  0  0  0
    7.8275   -0.3562    0.0000 O   0  0  0  0  0  0  0  0  0  0  0  0
    2.6604    1.7461    0.0000 C   0  0  0  0  0  0  0  0  0  0  0  0
    1.1946    2.0644    0.0000 O   0  0  0  0  0  0  0  0  0  0  0  0
    3.6690    2.8564    0.0000 C   0  0  0  0  0  0  0  0  0  0  0  0
    3.2117    4.2850    0.0000 O   0  0  0  0  0  0  0  0  0  0  0  0
  1  2  1  0
  2  3  1  0
  3  4  2  0
  3 11  1  0
  4  5  1  0
  5  6  2  0
  6  7  1  0
  7  8  1  0
  7 11  2  0
  8  9  1  0
  9 10  2  0
  9 12  1  0
 10 11  1  0
 12 13  2  0
 12 14  1  0
 14 15  1  0
 15 16  1  0
 15 23  1  0
 16 17  1  0
 17 18  2  0
 17 22  1  0
 18 19  1  0
 19 20  2  0
 20 21  1  0
 21 22  2  0
 23 24  2  0
 23 25  1  0
 25 26  1  0
 26 27  1  0
 26 34  1  0
 27 28  1  0
 28 29  1  0
 28 32  1  0
 29 30  1  0
 30 31  1  0
 31 32  1  0
 32 33  2  0
 34 35  2  0
 34 36  1  0
 36 37  1  0
M  END
>  <s_m_entry_id>  (227) 
440

>  <s_m_entry_name>  (227) 
3C-like_protease_GHDDI_ligprep.59

>  <s_m_Source_Path>  (227) 
/home/jgilaber/drug_learning/drug_learning/datasets/SAR1/GHDDI

>  <s_m_Source_File>  (227) 
3C-like_protease_GHDDI_ligprep.sdf

>  <i_m_Source_File_Index>  (227) 
59

>  <s_m_subgroup_title>  (227) 
3C-like_protease_GHDDI_ligprep

>  <s_m_subgroupid>  (227) 
3C-like_protease_GHDDI_ligprep

>  <b_m_subgroup_collapsed>  (227) 
0

$$$$
13662
     RDKit          2D

 33 35  0  0  1  0  0  0  0  0999 V2000
   -4.1553   -4.5722    0.0000 C   0  0  0  0  0  0  0  0  0  0  0  0
   -3.0951   -3.5111    0.0000 O   0  0  0  0  0  0  0  0  0  0  0  0
   -3.4838   -2.0624    0.0000 C   0  0  0  0  0  0  0  0  0  0  0  0
   -2.4236   -1.0013    0.0000 C   0  0  0  0  0  0  0  0  0  0  0  0
   -0.9746   -1.3890    0.0000 O   0  0  0  0  0  0  0  0  0  0  0  0
   -2.8124    0.4474    0.0000 C   0  0  0  0  0  0  0  0  0  0  0  0
   -4.2614    0.8351    0.0000 C   0  0  0  0  0  0  0  0  0  0  0  0
   -5.3217   -0.2260    0.0000 C   0  0  0  0  0  0  0  0  0  0  0  0
   -5.0865   -1.7074    0.0000 C   0  0  0  0  0  0  0  0  0  0  0  0
   -6.4227   -2.3889    0.0000 C   0  0  0  0  0  0  0  0  0  0  0  0
   -7.4838   -1.3287    0.0000 N   0  0  0  0  0  0  0  0  0  0  0  0
   -6.8033    0.0081    0.0000 C   0  0  0  0  0  0  0  0  0  0  0  0
   -7.4848    1.3444    0.0000 O   0  0  0  0  0  0  0  0  0  0  0  0
   -1.7521    1.5085    0.0000 N   0  0  0  0  0  0  0  0  0  0  0  0
   -0.3031    1.1208    0.0000 C   0  0  0  0  0  0  0  0  0  0  0  0
    0.0857   -0.3279    0.0000 O   0  0  0  0  0  0  0  0  0  0  0  0
    0.7572    2.1819    0.0000 C   0  0  0  0  0  0  0  0  0  0  0  0
    0.3684    3.6306    0.0000 C   0  0  0  0  0  0  0  0  0  0  0  0
   -1.0807    4.0183    0.0000 C   0  0  0  0  0  0  0  0  0  0  0  0
   -1.4695    5.4671    0.0000 C   0  0  0  0  0  0  0  0  0  0  0  0
   -2.1409    2.9572    0.0000 C   0  0  0  0  0  0  0  0  0  0  0  0
    2.2062    1.7942    0.0000 N   0  0  0  0  0  0  0  0  0  0  0  0
    2.5950    0.3455    0.0000 C   0  0  0  0  0  0  0  0  0  0  0  0
    1.5347   -0.7156    0.0000 O   0  0  0  0  0  0  0  0  0  0  0  0
    4.0440   -0.0422    0.0000 C   0  0  0  0  0  0  0  0  0  0  0  0
    4.5821   -1.4423    0.0000 C   0  0  0  0  0  0  0  0  0  0  0  0
    6.0800   -1.3632    0.0000 C   0  0  0  0  0  0  0  0  0  0  0  0
    7.1411   -2.4235    0.0000 C   0  0  0  0  0  0  0  0  0  0  0  0
    8.5898   -2.0347    0.0000 C   0  0  0  0  0  0  0  0  0  0  0  0
    8.9775   -0.5857    0.0000 C   0  0  0  0  0  0  0  0  0  0  0  0
    7.9164    0.4746    0.0000 C   0  0  0  0  0  0  0  0  0  0  0  0
    6.4677    0.0858    0.0000 C   0  0  0  0  0  0  0  0  0  0  0  0
    5.2094    0.9023    0.0000 N   0  0  0  0  0  0  0  0  0  0  0  0
  1  2  1  0
  2  3  1  0
  3  4  1  0
  4  5  2  0
  4  6  1  0
  6  7  1  0
  6 14  1  0
  7  8  1  0
  8  9  1  0
  8 12  1  0
  9 10  1  0
 10 11  1  0
 11 12  1  0
 12 13  2  0
 14 15  1  0
 15 16  2  0
 15 17  1  0
 17 18  1  0
 17 22  1  0
 18 19  1  0
 19 20  1  0
 19 21  1  0
 22 23  1  0
 23 24  2  0
 23 25  1  0
 25 26  2  0
 25 33  1  0
 26 27  1  0
 27 28  2  0
 27 32  1  0
 28 29  1  0
 29 30  2  0
 30 31  1  0
 31 32  2  0
 32 33  1  0
M  END
>  <s_m_entry_id>  (228) 
441

>  <s_m_entry_name>  (228) 
3C-like_protease_GHDDI_ligprep.60

>  <s_m_Source_Path>  (228) 
/home/jgilaber/drug_learning/drug_learning/datasets/SAR1/GHDDI

>  <s_m_Source_File>  (228) 
3C-like_protease_GHDDI_ligprep.sdf

>  <i_m_Source_File_Index>  (228) 
60

>  <s_m_subgroup_title>  (228) 
3C-like_protease_GHDDI_ligprep

>  <s_m_subgroupid>  (228) 
3C-like_protease_GHDDI_ligprep

>  <b_m_subgroup_collapsed>  (228) 
0

$$$$
13663
     RDKit          2D

 33 35  0  0  1  0  0  0  0  0999 V2000
   -1.6519    2.6771    0.0000 C   0  0  0  0  0  0  0  0  0  0  0  0
   -0.9216    1.3668    0.0000 C   0  0  0  0  0  0  0  0  0  0  0  0
    0.5782    1.3441    0.0000 C   0  0  0  0  0  0  0  0  0  0  0  0
   -1.6912    0.0793    0.0000 C   0  0  0  0  0  0  0  0  0  0  0  0
   -0.9610   -1.2310    0.0000 C   0  0  0  0  0  0  0  0  0  0  0  0
   -1.7306   -2.5185    0.0000 N   0  0  0  0  0  0  0  0  0  0  0  0
   -1.0004   -3.8287    0.0000 C   0  0  0  0  0  0  0  0  0  0  0  0
   -3.2305   -2.4957    0.0000 C   0  0  0  0  0  0  0  0  0  0  0  0
   -4.0001   -3.7833    0.0000 O   0  0  0  0  0  0  0  0  0  0  0  0
   -3.9607   -1.1855    0.0000 C   0  0  0  0  0  0  0  0  0  0  0  0
   -5.4499   -1.0061    0.0000 C   0  0  0  0  0  0  0  0  0  0  0  0
   -5.7395    0.4657    0.0000 C   0  0  0  0  0  0  0  0  0  0  0  0
   -7.0270    1.2353    0.0000 C   0  0  0  0  0  0  0  0  0  0  0  0
   -7.0043    2.7351    0.0000 C   0  0  0  0  0  0  0  0  0  0  0  0
   -5.6940    3.4653    0.0000 C   0  0  0  0  0  0  0  0  0  0  0  0
   -4.4065    2.6957    0.0000 C   0  0  0  0  0  0  0  0  0  0  0  0
   -4.4292    1.1959    0.0000 C   0  0  0  0  0  0  0  0  0  0  0  0
   -3.3299    0.1754    0.0000 N   0  0  0  0  0  0  0  0  0  0  0  0
    0.5388   -1.2537    0.0000 C   0  0  0  0  0  0  0  0  0  0  0  0
    1.2690   -2.5640    0.0000 O   0  0  0  0  0  0  0  0  0  0  0  0
    1.3084    0.0338    0.0000 N   0  0  0  0  0  0  0  0  0  0  0  0
    2.8082    0.0111    0.0000 C   0  0  0  0  0  0  0  0  0  0  0  0
    3.5778    1.2986    0.0000 C   0  0  0  0  0  0  0  0  0  0  0  0
    5.0777    1.2759    0.0000 C   0  0  0  0  0  0  0  0  0  0  0  0
    5.9408    0.0491    0.0000 C   0  0  0  0  0  0  0  0  0  0  0  0
    7.3743    0.4910    0.0000 C   0  0  0  0  0  0  0  0  0  0  0  0
    7.3970    1.9908    0.0000 N   0  0  0  0  0  0  0  0  0  0  0  0
    5.9776    2.4759    0.0000 C   0  0  0  0  0  0  0  0  0  0  0  0
    5.5358    3.9093    0.0000 O   0  0  0  0  0  0  0  0  0  0  0  0
    3.5385   -1.2992    0.0000 C   0  0  0  0  0  0  0  0  0  0  0  0
    5.0383   -1.3219    0.0000 O   0  0  0  0  0  0  0  0  0  0  0  0
    2.7689   -2.5867    0.0000 C   0  0  0  0  0  0  0  0  0  0  0  0
    3.4991   -3.8970    0.0000 O   0  0  0  0  0  0  0  0  0  0  0  0
  1  2  1  0
  2  3  1  0
  2  4  1  0
  4  5  1  0
  5  6  1  0
  5 19  1  0
  6  7  1  0
  6  8  1  0
  8  9  2  0
  8 10  1  0
 10 11  2  0
 10 18  1  0
 11 12  1  0
 12 13  2  0
 12 17  1  0
 13 14  1  0
 14 15  2  0
 15 16  1  0
 16 17  2  0
 17 18  1  0
 19 20  2  0
 19 21  1  0
 21 22  1  0
 22 23  1  0
 22 30  1  0
 23 24  1  0
 24 25  1  0
 24 28  1  0
 25 26  1  0
 26 27  1  0
 27 28  1  0
 28 29  2  0
 30 31  2  0
 30 32  1  0
 32 33  1  0
M  END
>  <s_m_entry_id>  (229) 
442

>  <s_m_entry_name>  (229) 
3C-like_protease_GHDDI_ligprep.61

>  <s_m_Source_Path>  (229) 
/home/jgilaber/drug_learning/drug_learning/datasets/SAR1/GHDDI

>  <s_m_Source_File>  (229) 
3C-like_protease_GHDDI_ligprep.sdf

>  <i_m_Source_File_Index>  (229) 
61

>  <s_m_subgroup_title>  (229) 
3C-like_protease_GHDDI_ligprep

>  <s_m_subgroupid>  (229) 
3C-like_protease_GHDDI_ligprep

>  <b_m_subgroup_collapsed>  (229) 
0

$$$$
13664
     RDKit          2D

 39 42  0  0  1  0  0  0  0  0999 V2000
  -10.0651   -0.9790    0.0000 C   0  0  0  0  0  0  0  0  0  0  0  0
   -8.5692   -0.8672    0.0000 O   0  0  0  0  0  0  0  0  0  0  0  0
   -7.9182    0.4842    0.0000 C   0  0  0  0  0  0  0  0  0  0  0  0
   -8.7630    1.7237    0.0000 C   0  0  0  0  0  0  0  0  0  0  0  0
   -8.1119    3.0750    0.0000 C   0  0  0  0  0  0  0  0  0  0  0  0
   -6.6161    3.1868    0.0000 C   0  0  0  0  0  0  0  0  0  0  0  0
   -5.7713    1.9473    0.0000 C   0  0  0  0  0  0  0  0  0  0  0  0
   -4.2849    1.7457    0.0000 N   0  0  0  0  0  0  0  0  0  0  0  0
   -4.0173    0.2698    0.0000 C   0  0  0  0  0  0  0  0  0  0  0  0
   -5.3383   -0.4408    0.0000 C   0  0  0  0  0  0  0  0  0  0  0  0
   -6.4224    0.5960    0.0000 C   0  0  0  0  0  0  0  0  0  0  0  0
   -2.6660   -0.3813    0.0000 C   0  0  0  0  0  0  0  0  0  0  0  0
   -1.4265    0.4635    0.0000 O   0  0  0  0  0  0  0  0  0  0  0  0
   -2.5542   -1.8771    0.0000 N   0  0  0  0  0  0  0  0  0  0  0  0
   -1.2028   -2.5281    0.0000 C   0  0  0  0  0  0  0  0  0  0  0  0
   -1.0910   -4.0240    0.0000 C   0  0  0  0  0  0  0  0  0  0  0  0
    0.2604   -4.6750    0.0000 C   0  0  0  0  0  0  0  0  0  0  0  0
    0.3722   -6.1708    0.0000 C   0  0  0  0  0  0  0  0  0  0  0  0
    1.4999   -3.8303    0.0000 C   0  0  0  0  0  0  0  0  0  0  0  0
    0.0367   -1.6834    0.0000 C   0  0  0  0  0  0  0  0  0  0  0  0
   -0.0751   -0.1875    0.0000 O   0  0  0  0  0  0  0  0  0  0  0  0
    1.3880   -2.3344    0.0000 N   0  0  0  0  0  0  0  0  0  0  0  0
    2.6275   -1.4897    0.0000 C   0  0  0  0  0  0  0  0  0  0  0  0
    3.9789   -2.1407    0.0000 C   0  0  0  0  0  0  0  0  0  0  0  0
    5.2184   -1.2959    0.0000 C   0  0  0  0  0  0  0  0  0  0  0  0
    5.2635    0.2034    0.0000 C   0  0  0  0  0  0  0  0  0  0  0  0
    6.7034    0.6238    0.0000 C   0  0  0  0  0  0  0  0  0  0  0  0
    7.5482   -0.6157    0.0000 N   0  0  0  0  0  0  0  0  0  0  0  0
    6.6304   -1.8022    0.0000 C   0  0  0  0  0  0  0  0  0  0  0  0
    7.0508   -3.2421    0.0000 O   0  0  0  0  0  0  0  0  0  0  0  0
    2.5157    0.0062    0.0000 C   0  0  0  0  0  0  0  0  0  0  0  0
    1.1644    0.6572    0.0000 O   0  0  0  0  0  0  0  0  0  0  0  0
    3.7552    0.8509    0.0000 C   0  0  0  0  0  0  0  0  0  0  0  0
    3.6434    2.3468    0.0000 O   0  0  0  0  0  0  0  0  0  0  0  0
    4.8829    3.1915    0.0000 C   0  0  0  0  0  0  0  0  0  0  0  0
    6.2342    2.5405    0.0000 O   0  0  0  0  0  0  0  0  0  0  0  0
    4.7710    4.6874    0.0000 C   0  0  0  0  0  0  0  0  0  0  0  0
    3.9263    5.9269    0.0000 C   0  0  0  0  0  0  0  0  0  0  0  0
    5.4221    6.0387    0.0000 C   0  0  0  0  0  0  0  0  0  0  0  0
  1  2  1  0
  2  3  1  0
  3  4  2  0
  3 11  1  0
  4  5  1  0
  5  6  2  0
  6  7  1  0
  7  8  1  0
  7 11  2  0
  8  9  1  0
  9 10  2  0
  9 12  1  0
 10 11  1  0
 12 13  2  0
 12 14  1  0
 14 15  1  0
 15 16  1  0
 15 20  1  0
 16 17  1  0
 17 18  1  0
 17 19  1  0
 20 21  2  0
 20 22  1  0
 22 23  1  0
 23 24  1  0
 23 31  1  0
 24 25  1  0
 25 26  1  0
 25 29  1  0
 26 27  1  0
 27 28  1  0
 28 29  1  0
 29 30  2  0
 31 32  2  0
 31 33  1  0
 33 34  1  0
 34 35  1  0
 35 36  2  0
 35 37  1  0
 37 38  1  0
 37 39  1  0
 38 39  1  0
M  END
>  <s_m_entry_id>  (230) 
443

>  <s_m_entry_name>  (230) 
3C-like_protease_GHDDI_ligprep.62

>  <s_m_Source_Path>  (230) 
/home/jgilaber/drug_learning/drug_learning/datasets/SAR1/GHDDI

>  <s_m_Source_File>  (230) 
3C-like_protease_GHDDI_ligprep.sdf

>  <i_m_Source_File_Index>  (230) 
62

>  <s_m_subgroup_title>  (230) 
3C-like_protease_GHDDI_ligprep

>  <s_m_subgroupid>  (230) 
3C-like_protease_GHDDI_ligprep

>  <b_m_subgroup_collapsed>  (230) 
0

$$$$
13665
     RDKit          2D

 39 41  0  0  1  0  0  0  0  0999 V2000
   -7.5920   -1.2688    0.0000 C   0  0  0  0  0  0  0  0  0  0  0  0
   -6.2986   -2.0284    0.0000 C   0  0  0  0  0  0  0  0  0  0  0  0
   -5.0051   -2.7880    0.0000 C   0  0  0  0  0  0  0  0  0  0  0  0
   -7.0582   -3.3218    0.0000 C   0  0  0  0  0  0  0  0  0  0  0  0
   -5.5390   -0.7349    0.0000 C   0  0  0  0  0  0  0  0  0  0  0  0
   -4.0390   -0.7460    0.0000 C   0  0  0  0  0  0  0  0  0  0  0  0
   -3.2987   -2.0506    0.0000 N   0  0  0  0  0  0  0  0  0  0  0  0
   -1.7987   -2.0617    0.0000 C   0  0  0  0  0  0  0  0  0  0  0  0
   -1.0391   -0.7682    0.0000 O   0  0  0  0  0  0  0  0  0  0  0  0
   -1.0584   -3.3663    0.0000 C   0  0  0  0  0  0  0  0  0  0  0  0
   -1.6786   -4.7320    0.0000 C   0  0  0  0  0  0  0  0  0  0  0  0
   -0.5713   -5.7439    0.0000 C   0  0  0  0  0  0  0  0  0  0  0  0
    0.7332   -5.0036    0.0000 C   0  0  0  0  0  0  0  0  0  0  0  0
    0.4322   -3.5341    0.0000 O   0  0  0  0  0  0  0  0  0  0  0  0
   -3.2794    0.5474    0.0000 C   0  0  0  0  0  0  0  0  0  0  0  0
   -4.0198    1.8520    0.0000 O   0  0  0  0  0  0  0  0  0  0  0  0
   -1.7795    0.5363    0.0000 N   0  0  0  0  0  0  0  0  0  0  0  0
   -1.0199    1.8298    0.0000 C   0  0  0  0  0  0  0  0  0  0  0  0
   -1.7602    3.1343    0.0000 C   0  0  0  0  0  0  0  0  0  0  0  0
   -1.0006    4.4278    0.0000 C   0  0  0  0  0  0  0  0  0  0  0  0
    0.4923    4.5735    0.0000 C   0  0  0  0  0  0  0  0  0  0  0  0
    0.8150    6.0384    0.0000 C   0  0  0  0  0  0  0  0  0  0  0  0
   -0.4784    6.7980    0.0000 N   0  0  0  0  0  0  0  0  0  0  0  0
   -1.6006    5.8026    0.0000 C   0  0  0  0  0  0  0  0  0  0  0  0
   -3.0654    6.1253    0.0000 O   0  0  0  0  0  0  0  0  0  0  0  0
    0.4801    1.8186    0.0000 C   0  0  0  0  0  0  0  0  0  0  0  0
    1.2397    3.1121    0.0000 O   0  0  0  0  0  0  0  0  0  0  0  0
    1.2204    0.5141    0.0000 C   0  0  0  0  0  0  0  0  0  0  0  0
    2.7204    0.5030    0.0000 O   0  0  0  0  0  0  0  0  0  0  0  0
    3.4608   -0.8016    0.0000 C   0  0  0  0  0  0  0  0  0  0  0  0
    2.7012   -2.0950    0.0000 O   0  0  0  0  0  0  0  0  0  0  0  0
    4.9607   -0.8127    0.0000 C   0  0  0  0  0  0  0  0  0  0  0  0
    5.7011   -2.1172    0.0000 C   0  0  0  0  0  0  0  0  0  0  0  0
    4.9415   -3.4107    0.0000 Cl  0  0  0  0  0  0  0  0  0  0  0  0
    7.2010   -2.1284    0.0000 C   0  0  0  0  0  0  0  0  0  0  0  0
    7.9606   -0.8349    0.0000 C   0  0  0  0  0  0  0  0  0  0  0  0
    7.2203    0.4696    0.0000 C   0  0  0  0  0  0  0  0  0  0  0  0
    5.7203    0.4808    0.0000 C   0  0  0  0  0  0  0  0  0  0  0  0
    4.9800    1.7853    0.0000 Cl  0  0  0  0  0  0  0  0  0  0  0  0
  1  2  1  0
  2  3  1  0
  2  4  1  0
  2  5  1  0
  5  6  1  0
  6  7  1  0
  6 15  1  0
  7  8  1  0
  8  9  2  0
  8 10  1  0
 10 11  1  0
 10 14  1  0
 11 12  1  0
 12 13  1  0
 13 14  1  0
 15 16  2  0
 15 17  1  0
 17 18  1  0
 18 19  1  0
 18 26  1  0
 19 20  1  0
 20 21  1  0
 20 24  1  0
 21 22  1  0
 22 23  1  0
 23 24  1  0
 24 25  2  0
 26 27  2  0
 26 28  1  0
 28 29  1  0
 29 30  1  0
 30 31  2  0
 30 32  1  0
 32 33  2  0
 32 38  1  0
 33 34  1  0
 33 35  1  0
 35 36  2  0
 36 37  1  0
 37 38  2  0
 38 39  1  0
M  END
>  <s_m_entry_id>  (231) 
444

>  <s_m_entry_name>  (231) 
3C-like_protease_GHDDI_ligprep.63

>  <s_m_Source_Path>  (231) 
/home/jgilaber/drug_learning/drug_learning/datasets/SAR1/GHDDI

>  <s_m_Source_File>  (231) 
3C-like_protease_GHDDI_ligprep.sdf

>  <i_m_Source_File_Index>  (231) 
63

>  <s_m_subgroup_title>  (231) 
3C-like_protease_GHDDI_ligprep

>  <s_m_subgroupid>  (231) 
3C-like_protease_GHDDI_ligprep

>  <b_m_subgroup_collapsed>  (231) 
0

$$$$
13666
     RDKit          2D

 44 47  0  0  1  0  0  0  0  0999 V2000
  -10.7234    0.1896    0.0000 C   0  0  0  0  0  0  0  0  0  0  0  0
   -9.2307    0.0426    0.0000 O   0  0  0  0  0  0  0  0  0  0  0  0
   -8.3570    1.2619    0.0000 C   0  0  0  0  0  0  0  0  0  0  0  0
   -8.9761    2.6282    0.0000 C   0  0  0  0  0  0  0  0  0  0  0  0
   -8.1024    3.8475    0.0000 C   0  0  0  0  0  0  0  0  0  0  0  0
   -6.6096    3.7005    0.0000 C   0  0  0  0  0  0  0  0  0  0  0  0
   -5.9905    2.3342    0.0000 C   0  0  0  0  0  0  0  0  0  0  0  0
   -4.5609    1.8801    0.0000 N   0  0  0  0  0  0  0  0  0  0  0  0
   -4.5511    0.3801    0.0000 C   0  0  0  0  0  0  0  0  0  0  0  0
   -5.9746   -0.0928    0.0000 C   0  0  0  0  0  0  0  0  0  0  0  0
   -6.8642    1.1149    0.0000 C   0  0  0  0  0  0  0  0  0  0  0  0
   -3.3318   -0.4936    0.0000 C   0  0  0  0  0  0  0  0  0  0  0  0
   -1.9655    0.1255    0.0000 O   0  0  0  0  0  0  0  0  0  0  0  0
   -3.4787   -1.9864    0.0000 N   0  0  0  0  0  0  0  0  0  0  0  0
   -2.2594   -2.8600    0.0000 C   0  0  0  0  0  0  0  0  0  0  0  0
   -2.4064   -4.3528    0.0000 C   0  0  0  0  0  0  0  0  0  0  0  0
   -1.1871   -5.2265    0.0000 C   0  0  0  0  0  0  0  0  0  0  0  0
   -1.3341   -6.7193    0.0000 C   0  0  0  0  0  0  0  0  0  0  0  0
    0.1791   -4.6074    0.0000 C   0  0  0  0  0  0  0  0  0  0  0  0
   -0.8932   -2.2409    0.0000 C   0  0  0  0  0  0  0  0  0  0  0  0
   -0.7462   -0.7482    0.0000 O   0  0  0  0  0  0  0  0  0  0  0  0
    0.3261   -3.1146    0.0000 N   0  0  0  0  0  0  0  0  0  0  0  0
    1.6924   -2.4955    0.0000 C   0  0  0  0  0  0  0  0  0  0  0  0
    2.9117   -3.3692    0.0000 C   0  0  0  0  0  0  0  0  0  0  0  0
    4.2780   -2.7501    0.0000 C   0  0  0  0  0  0  0  0  0  0  0  0
    4.5802   -1.2808    0.0000 C   0  0  0  0  0  0  0  0  0  0  0  0
    6.0709   -1.1142    0.0000 C   0  0  0  0  0  0  0  0  0  0  0  0
    6.6900   -2.4805    0.0000 N   0  0  0  0  0  0  0  0  0  0  0  0
    5.5819   -3.4915    0.0000 C   0  0  0  0  0  0  0  0  0  0  0  0
    5.7485   -4.9822    0.0000 O   0  0  0  0  0  0  0  0  0  0  0  0
    1.8394   -1.0027    0.0000 C   0  0  0  0  0  0  0  0  0  0  0  0
    0.6201   -0.1290    0.0000 O   0  0  0  0  0  0  0  0  0  0  0  0
    3.2057   -0.3836    0.0000 C   0  0  0  0  0  0  0  0  0  0  0  0
    3.3526    1.1092    0.0000 O   0  0  0  0  0  0  0  0  0  0  0  0
    4.7189    1.7283    0.0000 C   0  0  0  0  0  0  0  0  0  0  0  0
    5.9382    0.8546    0.0000 O   0  0  0  0  0  0  0  0  0  0  0  0
    4.8659    3.2210    0.0000 C   0  0  0  0  0  0  0  0  0  0  0  0
    6.2322    3.8401    0.0000 C   0  0  0  0  0  0  0  0  0  0  0  0
    7.4515    2.9665    0.0000 C   0  0  0  0  0  0  0  0  0  0  0  0
    6.3792    5.3329    0.0000 C   0  0  0  0  0  0  0  0  0  0  0  0
    5.1599    6.2066    0.0000 C   0  0  0  0  0  0  0  0  0  0  0  0
    3.7936    5.5875    0.0000 C   0  0  0  0  0  0  0  0  0  0  0  0
    3.6466    4.0947    0.0000 C   0  0  0  0  0  0  0  0  0  0  0  0
    2.2803    3.4756    0.0000 C   0  0  0  0  0  0  0  0  0  0  0  0
  1  2  1  0
  2  3  1  0
  3  4  2  0
  3 11  1  0
  4  5  1  0
  5  6  2  0
  6  7  1  0
  7  8  1  0
  7 11  2  0
  8  9  1  0
  9 10  2  0
  9 12  1  0
 10 11  1  0
 12 13  2  0
 12 14  1  0
 14 15  1  0
 15 16  1  0
 15 20  1  0
 16 17  1  0
 17 18  1  0
 17 19  1  0
 20 21  2  0
 20 22  1  0
 22 23  1  0
 23 24  1  0
 23 31  1  0
 24 25  1  0
 25 26  1  0
 25 29  1  0
 26 27  1  0
 27 28  1  0
 28 29  1  0
 29 30  2  0
 31 32  2  0
 31 33  1  0
 33 34  1  0
 34 35  1  0
 35 36  2  0
 35 37  1  0
 37 38  2  0
 37 43  1  0
 38 39  1  0
 38 40  1  0
 40 41  2  0
 41 42  1  0
 42 43  2  0
 43 44  1  0
M  END
>  <s_m_entry_id>  (232) 
445

>  <s_m_entry_name>  (232) 
3C-like_protease_GHDDI_ligprep.64

>  <s_m_Source_Path>  (232) 
/home/jgilaber/drug_learning/drug_learning/datasets/SAR1/GHDDI

>  <s_m_Source_File>  (232) 
3C-like_protease_GHDDI_ligprep.sdf

>  <i_m_Source_File_Index>  (232) 
64

>  <s_m_subgroup_title>  (232) 
3C-like_protease_GHDDI_ligprep

>  <s_m_subgroupid>  (232) 
3C-like_protease_GHDDI_ligprep

>  <b_m_subgroup_collapsed>  (232) 
0

$$$$
13667
     RDKit          2D

 37 39  0  0  1  0  0  0  0  0999 V2000
   -9.7341   -1.3999    0.0000 C   0  0  0  0  0  0  0  0  0  0  0  0
   -8.2512   -1.1746    0.0000 O   0  0  0  0  0  0  0  0  0  0  0  0
   -7.7047    0.2223    0.0000 C   0  0  0  0  0  0  0  0  0  0  0  0
   -8.6413    1.3940    0.0000 C   0  0  0  0  0  0  0  0  0  0  0  0
   -8.0949    2.7909    0.0000 C   0  0  0  0  0  0  0  0  0  0  0  0
   -6.6119    3.0162    0.0000 C   0  0  0  0  0  0  0  0  0  0  0  0
   -5.6753    1.8445    0.0000 C   0  0  0  0  0  0  0  0  0  0  0  0
   -4.1779    1.7565    0.0000 N   0  0  0  0  0  0  0  0  0  0  0  0
   -3.7989    0.3052    0.0000 C   0  0  0  0  0  0  0  0  0  0  0  0
   -5.0620   -0.5038    0.0000 C   0  0  0  0  0  0  0  0  0  0  0  0
   -6.2218    0.4476    0.0000 C   0  0  0  0  0  0  0  0  0  0  0  0
   -2.4019   -0.2412    0.0000 C   0  0  0  0  0  0  0  0  0  0  0  0
   -1.2303    0.6954    0.0000 O   0  0  0  0  0  0  0  0  0  0  0  0
   -2.1767   -1.7242    0.0000 N   0  0  0  0  0  0  0  0  0  0  0  0
   -0.7798   -2.2706    0.0000 C   0  0  0  0  0  0  0  0  0  0  0  0
   -0.5545   -3.7536    0.0000 C   0  0  0  0  0  0  0  0  0  0  0  0
    0.8424   -4.3000    0.0000 C   0  0  0  0  0  0  0  0  0  0  0  0
    1.0677   -5.7830    0.0000 C   0  0  0  0  0  0  0  0  0  0  0  0
    2.0141   -3.3634    0.0000 C   0  0  0  0  0  0  0  0  0  0  0  0
    0.3919   -1.3340    0.0000 C   0  0  0  0  0  0  0  0  0  0  0  0
    0.1667    0.1490    0.0000 O   0  0  0  0  0  0  0  0  0  0  0  0
    1.7889   -1.8805    0.0000 N   0  0  0  0  0  0  0  0  0  0  0  0
    2.9605   -0.9439    0.0000 C   0  0  0  0  0  0  0  0  0  0  0  0
    4.3575   -1.4903    0.0000 C   0  0  0  0  0  0  0  0  0  0  0  0
    5.5292   -0.5537    0.0000 C   0  0  0  0  0  0  0  0  0  0  0  0
    5.4601    0.9447    0.0000 C   0  0  0  0  0  0  0  0  0  0  0  0
    6.8639    1.4734    0.0000 C   0  0  0  0  0  0  0  0  0  0  0  0
    7.8005    0.3017    0.0000 N   0  0  0  0  0  0  0  0  0  0  0  0
    6.9756   -0.9511    0.0000 C   0  0  0  0  0  0  0  0  0  0  0  0
    7.5042   -2.3549    0.0000 O   0  0  0  0  0  0  0  0  0  0  0  0
    2.7353    0.5391    0.0000 C   0  0  0  0  0  0  0  0  0  0  0  0
    1.3383    1.0855    0.0000 O   0  0  0  0  0  0  0  0  0  0  0  0
    3.9070    1.4757    0.0000 C   0  0  0  0  0  0  0  0  0  0  0  0
    3.6817    2.9587    0.0000 O   0  0  0  0  0  0  0  0  0  0  0  0
    4.8534    3.8952    0.0000 C   0  0  0  0  0  0  0  0  0  0  0  0
    6.2503    3.3488    0.0000 O   0  0  0  0  0  0  0  0  0  0  0  0
    4.6281    5.3782    0.0000 C   0  0  0  0  0  0  0  0  0  0  0  0
  1  2  1  0
  2  3  1  0
  3  4  2  0
  3 11  1  0
  4  5  1  0
  5  6  2  0
  6  7  1  0
  7  8  1  0
  7 11  2  0
  8  9  1  0
  9 10  2  0
  9 12  1  0
 10 11  1  0
 12 13  2  0
 12 14  1  0
 14 15  1  0
 15 16  1  0
 15 20  1  0
 16 17  1  0
 17 18  1  0
 17 19  1  0
 20 21  2  0
 20 22  1  0
 22 23  1  0
 23 24  1  0
 23 31  1  0
 24 25  1  0
 25 26  1  0
 25 29  1  0
 26 27  1  0
 27 28  1  0
 28 29  1  0
 29 30  2  0
 31 32  2  0
 31 33  1  0
 33 34  1  0
 34 35  1  0
 35 36  2  0
 35 37  1  0
M  END
>  <s_m_entry_id>  (233) 
446

>  <s_m_entry_name>  (233) 
3C-like_protease_GHDDI_ligprep.65

>  <s_m_Source_Path>  (233) 
/home/jgilaber/drug_learning/drug_learning/datasets/SAR1/GHDDI

>  <s_m_Source_File>  (233) 
3C-like_protease_GHDDI_ligprep.sdf

>  <i_m_Source_File_Index>  (233) 
65

>  <s_m_subgroup_title>  (233) 
3C-like_protease_GHDDI_ligprep

>  <s_m_subgroupid>  (233) 
3C-like_protease_GHDDI_ligprep

>  <b_m_subgroup_collapsed>  (233) 
0

$$$$
13668
     RDKit          2D

 19 20  0  0  1  0  0  0  0  0999 V2000
   -7.5242    0.0055    0.0000 Cl  0  0  0  0  0  0  0  0  0  0  0  0
   -6.0330    0.1672    0.0000 C   0  0  0  0  0  0  0  0  0  0  0  0
   -5.0256   -0.9442    0.0000 C   0  0  0  0  0  0  0  0  0  0  0  0
   -3.6573   -0.3296    0.0000 C   0  0  0  0  0  0  0  0  0  0  0  0
   -2.3558   -1.0753    0.0000 C   0  0  0  0  0  0  0  0  0  0  0  0
   -1.0593   -0.3210    0.0000 S   0  0  0  0  0  0  0  0  0  0  0  0
    0.2422   -1.0667    0.0000 C   0  0  0  0  0  0  0  0  0  0  0  0
    0.2472   -2.5667    0.0000 S   0  0  0  0  0  0  0  0  0  0  0  0
    1.5388   -0.3125    0.0000 N   0  0  0  0  0  0  0  0  0  0  0  0
    2.8403   -1.0582    0.0000 C   0  0  0  0  0  0  0  0  0  0  0  0
    4.1369   -0.3039    0.0000 C   0  0  0  0  0  0  0  0  0  0  0  0
    5.4384   -1.0497    0.0000 C   0  0  0  0  0  0  0  0  0  0  0  0
    6.7349   -0.2954    0.0000 C   0  0  0  0  0  0  0  0  0  0  0  0
    6.7300    1.2046    0.0000 C   0  0  0  0  0  0  0  0  0  0  0  0
    5.4285    1.9503    0.0000 N   0  0  0  0  0  0  0  0  0  0  0  0
    4.1319    1.1961    0.0000 C   0  0  0  0  0  0  0  0  0  0  0  0
   -3.8190    1.1617    0.0000 C   0  0  0  0  0  0  0  0  0  0  0  0
   -2.7076    2.1690    0.0000 Cl  0  0  0  0  0  0  0  0  0  0  0  0
   -5.2873    1.4687    0.0000 S   0  0  0  0  0  0  0  0  0  0  0  0
  1  2  1  0
  2  3  2  0
  2 19  1  0
  3  4  1  0
  4  5  1  0
  4 17  2  0
  5  6  1  0
  6  7  1  0
  7  8  2  0
  7  9  1  0
  9 10  1  0
 10 11  1  0
 11 12  2  0
 11 16  1  0
 12 13  1  0
 13 14  2  0
 14 15  1  0
 15 16  2  0
 17 18  1  0
 17 19  1  0
M  END
>  <s_m_entry_id>  (234) 
447

>  <s_m_entry_name>  (234) 
3C-like_protease_GHDDI_ligprep.66

>  <s_m_Source_Path>  (234) 
/home/jgilaber/drug_learning/drug_learning/datasets/SAR1/GHDDI

>  <s_m_Source_File>  (234) 
3C-like_protease_GHDDI_ligprep.sdf

>  <i_m_Source_File_Index>  (234) 
66

>  <s_m_subgroup_title>  (234) 
3C-like_protease_GHDDI_ligprep

>  <s_m_subgroupid>  (234) 
3C-like_protease_GHDDI_ligprep

>  <b_m_subgroup_collapsed>  (234) 
0

$$$$
13669
     RDKit          2D

 46 49  0  0  1  0  0  0  0  0999 V2000
   -0.4305   -3.9725    0.0000 C   0  0  0  0  0  0  0  0  0  0  0  0
   -1.7015   -3.1759    0.0000 O   0  0  0  0  0  0  0  0  0  0  0  0
   -3.0269   -3.8783    0.0000 C   0  0  0  0  0  0  0  0  0  0  0  0
   -3.0813   -5.3773    0.0000 C   0  0  0  0  0  0  0  0  0  0  0  0
   -4.4067   -6.0797    0.0000 C   0  0  0  0  0  0  0  0  0  0  0  0
   -5.6777   -5.2831    0.0000 C   0  0  0  0  0  0  0  0  0  0  0  0
   -5.6233   -3.7840    0.0000 C   0  0  0  0  0  0  0  0  0  0  0  0
   -6.8942   -2.9874    0.0000 O   0  0  0  0  0  0  0  0  0  0  0  0
   -8.2196   -3.6898    0.0000 C   0  0  0  0  0  0  0  0  0  0  0  0
   -4.2979   -3.0816    0.0000 C   0  0  0  0  0  0  0  0  0  0  0  0
   -4.2435   -1.5826    0.0000 C   0  0  0  0  0  0  0  0  0  0  0  0
   -5.5145   -0.7860    0.0000 O   0  0  0  0  0  0  0  0  0  0  0  0
   -2.9181   -0.8802    0.0000 O   0  0  0  0  0  0  0  0  0  0  0  0
   -2.8637    0.6188    0.0000 C   0  0  0  0  0  0  0  0  0  0  0  0
   -1.5383    1.3212    0.0000 C   0  0  0  0  0  0  0  0  0  0  0  0
   -0.2673    0.5246    0.0000 O   0  0  0  0  0  0  0  0  0  0  0  0
   -1.4839    2.8202    0.0000 C   0  0  0  0  0  0  0  0  0  0  0  0
   -2.7549    3.6168    0.0000 C   0  0  0  0  0  0  0  0  0  0  0  0
   -4.0803    2.9144    0.0000 C   0  0  0  0  0  0  0  0  0  0  0  0
   -4.2911    1.4293    0.0000 C   0  0  0  0  0  0  0  0  0  0  0  0
   -5.7687    1.1708    0.0000 C   0  0  0  0  0  0  0  0  0  0  0  0
   -6.4711    2.4962    0.0000 N   0  0  0  0  0  0  0  0  0  0  0  0
   -5.4276    3.5738    0.0000 C   0  0  0  0  0  0  0  0  0  0  0  0
   -5.6861    5.0514    0.0000 O   0  0  0  0  0  0  0  0  0  0  0  0
   -0.1586    3.5226    0.0000 N   0  0  0  0  0  0  0  0  0  0  0  0
    1.1124    2.7260    0.0000 C   0  0  0  0  0  0  0  0  0  0  0  0
    1.0580    1.2270    0.0000 O   0  0  0  0  0  0  0  0  0  0  0  0
    2.4378    3.4284    0.0000 C   0  0  0  0  0  0  0  0  0  0  0  0
    2.4922    4.9274    0.0000 C   0  0  0  0  0  0  0  0  0  0  0  0
    1.2212    5.7240    0.0000 C   0  0  0  0  0  0  0  0  0  0  0  0
    1.2756    7.2230    0.0000 C   0  0  0  0  0  0  0  0  0  0  0  0
   -0.1042    5.0216    0.0000 C   0  0  0  0  0  0  0  0  0  0  0  0
    3.7088    2.6318    0.0000 N   0  0  0  0  0  0  0  0  0  0  0  0
    3.6544    1.1328    0.0000 C   0  0  0  0  0  0  0  0  0  0  0  0
    2.3290    0.4304    0.0000 O   0  0  0  0  0  0  0  0  0  0  0  0
    4.9254    0.3362    0.0000 C   0  0  0  0  0  0  0  0  0  0  0  0
    5.0280   -1.1603    0.0000 C   0  0  0  0  0  0  0  0  0  0  0  0
    6.4829   -1.5252    0.0000 C   0  0  0  0  0  0  0  0  0  0  0  0
    7.1853   -2.8506    0.0000 C   0  0  0  0  0  0  0  0  0  0  0  0
    6.3887   -4.1216    0.0000 O   0  0  0  0  0  0  0  0  0  0  0  0
    7.0911   -5.4469    0.0000 C   0  0  0  0  0  0  0  0  0  0  0  0
    8.6843   -2.9050    0.0000 C   0  0  0  0  0  0  0  0  0  0  0  0
    9.4810   -1.6340    0.0000 C   0  0  0  0  0  0  0  0  0  0  0  0
    8.7786   -0.3086    0.0000 C   0  0  0  0  0  0  0  0  0  0  0  0
    7.2795   -0.2542    0.0000 C   0  0  0  0  0  0  0  0  0  0  0  0
    6.3169    0.8962    0.0000 N   0  0  0  0  0  0  0  0  0  0  0  0
  1  2  1  0
  2  3  1  0
  3  4  2  0
  3 10  1  0
  4  5  1  0
  5  6  2  0
  6  7  1  0
  7  8  1  0
  7 10  2  0
  8  9  1  0
 10 11  1  0
 11 12  2  0
 11 13  1  0
 13 14  1  0
 14 15  1  0
 15 16  2  0
 15 17  1  0
 17 18  1  0
 17 25  1  0
 18 19  1  0
 19 20  1  0
 19 23  1  0
 20 21  1  0
 21 22  1  0
 22 23  1  0
 23 24  2  0
 25 26  1  0
 26 27  2  0
 26 28  1  0
 28 29  1  0
 28 33  1  0
 29 30  1  0
 30 31  1  0
 30 32  1  0
 33 34  1  0
 34 35  2  0
 34 36  1  0
 36 37  2  0
 36 46  1  0
 37 38  1  0
 38 39  2  0
 38 45  1  0
 39 40  1  0
 39 42  1  0
 40 41  1  0
 42 43  2  0
 43 44  1  0
 44 45  2  0
 45 46  1  0
M  END
>  <s_m_entry_id>  (235) 
448

>  <s_m_entry_name>  (235) 
3C-like_protease_GHDDI_ligprep.67

>  <s_m_Source_Path>  (235) 
/home/jgilaber/drug_learning/drug_learning/datasets/SAR1/GHDDI

>  <s_m_Source_File>  (235) 
3C-like_protease_GHDDI_ligprep.sdf

>  <i_m_Source_File_Index>  (235) 
67

>  <s_m_subgroup_title>  (235) 
3C-like_protease_GHDDI_ligprep

>  <s_m_subgroupid>  (235) 
3C-like_protease_GHDDI_ligprep

>  <b_m_subgroup_collapsed>  (235) 
0

$$$$
13670
     RDKit          2D

 34 35  0  0  1  0  0  0  0  0999 V2000
   -9.2684   -1.9167    0.0000 C   0  0  0  0  0  0  0  0  0  0  0  0
   -7.8166   -1.5397    0.0000 O   0  0  0  0  0  0  0  0  0  0  0  0
   -7.4171   -0.0939    0.0000 C   0  0  0  0  0  0  0  0  0  0  0  0
   -8.4696    0.9749    0.0000 C   0  0  0  0  0  0  0  0  0  0  0  0
   -8.0701    2.4208    0.0000 C   0  0  0  0  0  0  0  0  0  0  0  0
   -6.6183    2.7978    0.0000 C   0  0  0  0  0  0  0  0  0  0  0  0
   -5.5659    1.7289    0.0000 C   0  0  0  0  0  0  0  0  0  0  0  0
   -4.0674    1.7958    0.0000 N   0  0  0  0  0  0  0  0  0  0  0  0
   -3.5407    0.3914    0.0000 C   0  0  0  0  0  0  0  0  0  0  0  0
   -4.7137   -0.5436    0.0000 C   0  0  0  0  0  0  0  0  0  0  0  0
   -5.9653    0.2831    0.0000 C   0  0  0  0  0  0  0  0  0  0  0  0
   -2.0948   -0.0081    0.0000 C   0  0  0  0  0  0  0  0  0  0  0  0
   -1.0260    1.0443    0.0000 O   0  0  0  0  0  0  0  0  0  0  0  0
   -1.7178   -1.4599    0.0000 N   0  0  0  0  0  0  0  0  0  0  0  0
   -0.2720   -1.8594    0.0000 C   0  0  0  0  0  0  0  0  0  0  0  0
    0.1050   -3.3112    0.0000 C   0  0  0  0  0  0  0  0  0  0  0  0
    1.5509   -3.7106    0.0000 C   0  0  0  0  0  0  0  0  0  0  0  0
    1.9279   -5.1625    0.0000 C   0  0  0  0  0  0  0  0  0  0  0  0
    2.6197   -2.6582    0.0000 C   0  0  0  0  0  0  0  0  0  0  0  0
    0.7969   -0.8069    0.0000 C   0  0  0  0  0  0  0  0  0  0  0  0
    0.4199    0.6449    0.0000 O   0  0  0  0  0  0  0  0  0  0  0  0
    2.2427   -1.2064    0.0000 N   0  0  0  0  0  0  0  0  0  0  0  0
    3.3115   -0.1540    0.0000 C   0  0  0  0  0  0  0  0  0  0  0  0
    4.7574   -0.5534    0.0000 C   0  0  0  0  0  0  0  0  0  0  0  0
    5.8262    0.4990    0.0000 C   0  0  0  0  0  0  0  0  0  0  0  0
    7.2721    0.0996    0.0000 C   0  0  0  0  0  0  0  0  0  0  0  0
    7.6491   -1.3523    0.0000 O   0  0  0  0  0  0  0  0  0  0  0  0
    8.3409    1.1520    0.0000 N   0  0  0  0  0  0  0  0  0  0  0  0
    9.7867    0.7526    0.0000 C   0  0  0  0  0  0  0  0  0  0  0  0
    7.9639    2.6039    0.0000 C   0  0  0  0  0  0  0  0  0  0  0  0
    2.9345    1.2979    0.0000 C   0  0  0  0  0  0  0  0  0  0  0  0
    1.4887    1.6973    0.0000 O   0  0  0  0  0  0  0  0  0  0  0  0
    4.0034    2.3503    0.0000 C   0  0  0  0  0  0  0  0  0  0  0  0
    3.6264    3.8022    0.0000 O   0  0  0  0  0  0  0  0  0  0  0  0
  1  2  1  0
  2  3  1  0
  3  4  2  0
  3 11  1  0
  4  5  1  0
  5  6  2  0
  6  7  1  0
  7  8  1  0
  7 11  2  0
  8  9  1  0
  9 10  2  0
  9 12  1  0
 10 11  1  0
 12 13  2  0
 12 14  1  0
 14 15  1  0
 15 16  1  0
 15 20  1  0
 16 17  1  0
 17 18  1  0
 17 19  1  0
 20 21  2  0
 20 22  1  0
 22 23  1  0
 23 24  1  0
 23 31  1  0
 24 25  1  0
 25 26  1  0
 26 27  2  0
 26 28  1  0
 28 29  1  0
 28 30  1  0
 31 32  2  0
 31 33  1  0
 33 34  1  0
M  END
>  <s_m_entry_id>  (236) 
449

>  <s_m_entry_name>  (236) 
3C-like_protease_GHDDI_ligprep.68

>  <s_m_Source_Path>  (236) 
/home/jgilaber/drug_learning/drug_learning/datasets/SAR1/GHDDI

>  <s_m_Source_File>  (236) 
3C-like_protease_GHDDI_ligprep.sdf

>  <i_m_Source_File_Index>  (236) 
68

>  <s_m_subgroup_title>  (236) 
3C-like_protease_GHDDI_ligprep

>  <s_m_subgroupid>  (236) 
3C-like_protease_GHDDI_ligprep

>  <b_m_subgroup_collapsed>  (236) 
0

$$$$
13672
     RDKit          2D

 40 42  0  0  1  0  0  0  0  0999 V2000
  -10.2083   -0.8344    0.0000 C   0  0  0  0  0  0  0  0  0  0  0  0
   -8.7103   -0.7570    0.0000 O   0  0  0  0  0  0  0  0  0  0  0  0
   -8.0283    0.5790    0.0000 C   0  0  0  0  0  0  0  0  0  0  0  0
   -8.8444    1.8376    0.0000 C   0  0  0  0  0  0  0  0  0  0  0  0
   -8.1624    3.1736    0.0000 C   0  0  0  0  0  0  0  0  0  0  0  0
   -6.6644    3.2511    0.0000 C   0  0  0  0  0  0  0  0  0  0  0  0
   -5.8484    1.9925    0.0000 C   0  0  0  0  0  0  0  0  0  0  0  0
   -4.3670    1.7568    0.0000 N   0  0  0  0  0  0  0  0  0  0  0  0
   -4.1334    0.2751    0.0000 C   0  0  0  0  0  0  0  0  0  0  0  0
   -5.4704   -0.4050    0.0000 C   0  0  0  0  0  0  0  0  0  0  0  0
   -6.5303    0.6565    0.0000 C   0  0  0  0  0  0  0  0  0  0  0  0
   -2.7974   -0.4069    0.0000 C   0  0  0  0  0  0  0  0  0  0  0  0
   -1.5388    0.4092    0.0000 O   0  0  0  0  0  0  0  0  0  0  0  0
   -2.7200   -1.9049    0.0000 N   0  0  0  0  0  0  0  0  0  0  0  0
   -1.3840   -2.5868    0.0000 C   0  0  0  0  0  0  0  0  0  0  0  0
   -1.3065   -4.0848    0.0000 C   0  0  0  0  0  0  0  0  0  0  0  0
    0.0295   -4.7668    0.0000 C   0  0  0  0  0  0  0  0  0  0  0  0
    0.1069   -6.2648    0.0000 C   0  0  0  0  0  0  0  0  0  0  0  0
    1.2881   -3.9507    0.0000 C   0  0  0  0  0  0  0  0  0  0  0  0
   -0.1254   -1.7708    0.0000 C   0  0  0  0  0  0  0  0  0  0  0  0
   -0.2028   -0.2728    0.0000 O   0  0  0  0  0  0  0  0  0  0  0  0
    1.2107   -2.4527    0.0000 N   0  0  0  0  0  0  0  0  0  0  0  0
    2.4693   -1.6367    0.0000 C   0  0  0  0  0  0  0  0  0  0  0  0
    3.8053   -2.3186    0.0000 C   0  0  0  0  0  0  0  0  0  0  0  0
    5.0639   -1.5025    0.0000 C   0  0  0  0  0  0  0  0  0  0  0  0
    5.1434   -0.0047    0.0000 C   0  0  0  0  0  0  0  0  0  0  0  0
    6.5926    0.3825    0.0000 C   0  0  0  0  0  0  0  0  0  0  0  0
    7.4087   -0.8761    0.0000 N   0  0  0  0  0  0  0  0  0  0  0  0
    6.4638   -2.0411    0.0000 C   0  0  0  0  0  0  0  0  0  0  0  0
    6.8510   -3.4903    0.0000 O   0  0  0  0  0  0  0  0  0  0  0  0
    2.3918   -0.1387    0.0000 C   0  0  0  0  0  0  0  0  0  0  0  0
    1.0558    0.5433    0.0000 O   0  0  0  0  0  0  0  0  0  0  0  0
    3.6504    0.6774    0.0000 C   0  0  0  0  0  0  0  0  0  0  0  0
    3.5730    2.1754    0.0000 O   0  0  0  0  0  0  0  0  0  0  0  0
    4.8316    2.9915    0.0000 C   0  0  0  0  0  0  0  0  0  0  0  0
    6.1676    2.3095    0.0000 O   0  0  0  0  0  0  0  0  0  0  0  0
    4.7541    4.4895    0.0000 C   0  0  0  0  0  0  0  0  0  0  0  0
    6.2521    4.5669    0.0000 C   0  0  0  0  0  0  0  0  0  0  0  0
    3.2561    4.4120    0.0000 C   0  0  0  0  0  0  0  0  0  0  0  0
    4.6767    5.9875    0.0000 C   0  0  0  0  0  0  0  0  0  0  0  0
  1  2  1  0
  2  3  1  0
  3  4  2  0
  3 11  1  0
  4  5  1  0
  5  6  2  0
  6  7  1  0
  7  8  1  0
  7 11  2  0
  8  9  1  0
  9 10  2  0
  9 12  1  0
 10 11  1  0
 12 13  2  0
 12 14  1  0
 14 15  1  0
 15 16  1  0
 15 20  1  0
 16 17  1  0
 17 18  1  0
 17 19  1  0
 20 21  2  0
 20 22  1  0
 22 23  1  0
 23 24  1  0
 23 31  1  0
 24 25  1  0
 25 26  1  0
 25 29  1  0
 26 27  1  0
 27 28  1  0
 28 29  1  0
 29 30  2  0
 31 32  2  0
 31 33  1  0
 33 34  1  0
 34 35  1  0
 35 36  2  0
 35 37  1  0
 37 38  1  0
 37 39  1  0
 37 40  1  0
M  END
>  <s_m_entry_id>  (237) 
451

>  <s_m_entry_name>  (237) 
3C-like_protease_GHDDI_ligprep.70

>  <s_m_Source_Path>  (237) 
/home/jgilaber/drug_learning/drug_learning/datasets/SAR1/GHDDI

>  <s_m_Source_File>  (237) 
3C-like_protease_GHDDI_ligprep.sdf

>  <i_m_Source_File_Index>  (237) 
70

>  <s_m_subgroup_title>  (237) 
3C-like_protease_GHDDI_ligprep

>  <s_m_subgroupid>  (237) 
3C-like_protease_GHDDI_ligprep

>  <b_m_subgroup_collapsed>  (237) 
0

$$$$
13673
     RDKit          2D

 36 37  0  0  1  0  0  0  0  0999 V2000
    0.9966    4.2555    0.0000 C   0  0  0  0  0  0  0  0  0  0  0  0
    0.1283    3.0324    0.0000 C   0  0  0  0  0  0  0  0  0  0  0  0
   -1.3651    3.1728    0.0000 C   0  0  0  0  0  0  0  0  0  0  0  0
    0.7534    1.6689    0.0000 C   0  0  0  0  0  0  0  0  0  0  0  0
    2.2468    1.5284    0.0000 N   0  0  0  0  0  0  0  0  0  0  0  0
    3.1151    2.7516    0.0000 C   0  0  0  0  0  0  0  0  0  0  0  0
    2.4900    4.1151    0.0000 O   0  0  0  0  0  0  0  0  0  0  0  0
    4.6085    2.6112    0.0000 C   0  0  0  0  0  0  0  0  0  0  0  0
    5.4769    3.8343    0.0000 C   0  0  0  0  0  0  0  0  0  0  0  0
    5.2337    1.2476    0.0000 N   0  0  0  0  0  0  0  0  0  0  0  0
    6.7271    1.1072    0.0000 C   0  0  0  0  0  0  0  0  0  0  0  0
    7.5954    2.3303    0.0000 O   0  0  0  0  0  0  0  0  0  0  0  0
    7.3522   -0.2563    0.0000 C   0  0  0  0  0  0  0  0  0  0  0  0
   -0.1149    0.4457    0.0000 C   0  0  0  0  0  0  0  0  0  0  0  0
   -1.6083    0.5861    0.0000 O   0  0  0  0  0  0  0  0  0  0  0  0
    0.5102   -0.9178    0.0000 N   0  0  0  0  0  0  0  0  0  0  0  0
   -0.3581   -2.1409    0.0000 C   0  0  0  0  0  0  0  0  0  0  0  0
    0.2670   -3.5045    0.0000 C   0  0  0  0  0  0  0  0  0  0  0  0
    1.7604   -3.6449    0.0000 C   0  0  0  0  0  0  0  0  0  0  0  0
    2.3855   -5.0084    0.0000 C   0  0  0  0  0  0  0  0  0  0  0  0
    3.8789   -5.1488    0.0000 C   0  0  0  0  0  0  0  0  0  0  0  0
    4.7473   -3.9257    0.0000 C   0  0  0  0  0  0  0  0  0  0  0  0
    4.1221   -2.5622    0.0000 C   0  0  0  0  0  0  0  0  0  0  0  0
    2.6287   -2.4218    0.0000 C   0  0  0  0  0  0  0  0  0  0  0  0
   -1.8515   -2.0005    0.0000 C   0  0  0  0  0  0  0  0  0  0  0  0
   -2.7198   -3.2237    0.0000 O   0  0  0  0  0  0  0  0  0  0  0  0
   -2.4766   -0.6370    0.0000 N   0  0  0  0  0  0  0  0  0  0  0  0
   -3.9700   -0.4966    0.0000 C   0  0  0  0  0  0  0  0  0  0  0  0
   -4.5951    0.8670    0.0000 C   0  0  0  0  0  0  0  0  0  0  0  0
   -6.0886    1.0074    0.0000 C   0  0  0  0  0  0  0  0  0  0  0  0
   -7.0800   -0.1183    0.0000 C   0  0  0  0  0  0  0  0  0  0  0  0
   -8.4569    0.4767    0.0000 N   0  0  0  0  0  0  0  0  0  0  0  0
   -8.3165    1.9701    0.0000 C   0  0  0  0  0  0  0  0  0  0  0  0
   -6.8528    2.2981    0.0000 N   0  0  0  0  0  0  0  0  0  0  0  0
   -4.8383   -1.7197    0.0000 C   0  0  0  0  0  0  0  0  0  0  0  0
   -6.3317   -1.5793    0.0000 O   0  0  0  0  0  0  0  0  0  0  0  0
  1  2  1  0
  2  3  1  0
  2  4  1  0
  4  5  1  0
  4 14  1  0
  5  6  1  0
  6  7  2  0
  6  8  1  0
  8  9  1  0
  8 10  1  0
 10 11  1  0
 11 12  2  0
 11 13  1  0
 14 15  2  0
 14 16  1  0
 16 17  1  0
 17 18  1  0
 17 25  1  0
 18 19  1  0
 19 20  1  0
 19 24  1  0
 20 21  1  0
 21 22  1  0
 22 23  1  0
 23 24  1  0
 25 26  2  0
 25 27  1  0
 27 28  1  0
 28 29  1  0
 28 35  1  0
 29 30  1  0
 30 31  2  0
 30 34  1  0
 31 32  1  0
 32 33  1  0
 33 34  2  0
 35 36  2  0
M  END
>  <s_m_entry_id>  (238) 
455

>  <s_m_entry_name>  (238) 
3C-like_protease_GHDDI_ligprep.74

>  <s_m_Source_Path>  (238) 
/home/jgilaber/drug_learning/drug_learning/datasets/SAR1/GHDDI

>  <s_m_Source_File>  (238) 
3C-like_protease_GHDDI_ligprep.sdf

>  <i_m_Source_File_Index>  (238) 
74

>  <s_m_subgroup_title>  (238) 
3C-like_protease_GHDDI_ligprep

>  <s_m_subgroupid>  (238) 
3C-like_protease_GHDDI_ligprep

>  <b_m_subgroup_collapsed>  (238) 
0

$$$$
13677
     RDKit          2D

 37 38  0  0  1  0  0  0  0  0999 V2000
    1.0068    4.1121    0.0000 C   0  0  0  0  0  0  0  0  0  0  0  0
    0.0808    2.9321    0.0000 C   0  0  0  0  0  0  0  0  0  0  0  0
   -1.4042    3.1440    0.0000 C   0  0  0  0  0  0  0  0  0  0  0  0
    0.6397    1.5401    0.0000 C   0  0  0  0  0  0  0  0  0  0  0  0
    2.1246    1.3282    0.0000 N   0  0  0  0  0  0  0  0  0  0  0  0
    3.0507    2.5082    0.0000 C   0  0  0  0  0  0  0  0  0  0  0  0
    2.4917    3.9002    0.0000 O   0  0  0  0  0  0  0  0  0  0  0  0
    4.5356    2.2963    0.0000 C   0  0  0  0  0  0  0  0  0  0  0  0
    5.4616    3.4763    0.0000 C   0  0  0  0  0  0  0  0  0  0  0  0
    6.9466    3.2644    0.0000 O   0  0  0  0  0  0  0  0  0  0  0  0
    5.0945    0.9043    0.0000 N   0  0  0  0  0  0  0  0  0  0  0  0
    6.5795    0.6923    0.0000 C   0  0  0  0  0  0  0  0  0  0  0  0
    7.5055    1.8724    0.0000 O   0  0  0  0  0  0  0  0  0  0  0  0
    7.1384   -0.6996    0.0000 C   0  0  0  0  0  0  0  0  0  0  0  0
   -0.2863    0.3600    0.0000 C   0  0  0  0  0  0  0  0  0  0  0  0
   -1.7713    0.5720    0.0000 O   0  0  0  0  0  0  0  0  0  0  0  0
    0.2726   -1.0319    0.0000 N   0  0  0  0  0  0  0  0  0  0  0  0
   -0.6534   -2.2120    0.0000 C   0  0  0  0  0  0  0  0  0  0  0  0
   -0.0945   -3.6039    0.0000 C   0  0  0  0  0  0  0  0  0  0  0  0
    1.3905   -3.8159    0.0000 C   0  0  0  0  0  0  0  0  0  0  0  0
    1.9494   -5.2078    0.0000 C   0  0  0  0  0  0  0  0  0  0  0  0
    3.4344   -5.4198    0.0000 C   0  0  0  0  0  0  0  0  0  0  0  0
    4.3604   -4.2397    0.0000 C   0  0  0  0  0  0  0  0  0  0  0  0
    3.8014   -2.8478    0.0000 C   0  0  0  0  0  0  0  0  0  0  0  0
    2.3165   -2.6358    0.0000 C   0  0  0  0  0  0  0  0  0  0  0  0
   -2.1384   -2.0000    0.0000 C   0  0  0  0  0  0  0  0  0  0  0  0
   -3.0644   -3.1801    0.0000 O   0  0  0  0  0  0  0  0  0  0  0  0
   -2.6973   -0.6081    0.0000 N   0  0  0  0  0  0  0  0  0  0  0  0
   -4.1823   -0.3961    0.0000 C   0  0  0  0  0  0  0  0  0  0  0  0
   -4.7412    0.9959    0.0000 C   0  0  0  0  0  0  0  0  0  0  0  0
   -6.2261    1.2078    0.0000 C   0  0  0  0  0  0  0  0  0  0  0  0
   -7.2704    0.1310    0.0000 C   0  0  0  0  0  0  0  0  0  0  0  0
   -8.6172    0.7914    0.0000 N   0  0  0  0  0  0  0  0  0  0  0  0
   -8.4053    2.2764    0.0000 C   0  0  0  0  0  0  0  0  0  0  0  0
   -6.9275    2.5337    0.0000 N   0  0  0  0  0  0  0  0  0  0  0  0
   -5.1083   -1.5762    0.0000 C   0  0  0  0  0  0  0  0  0  0  0  0
   -6.5932   -1.3642    0.0000 O   0  0  0  0  0  0  0  0  0  0  0  0
  1  2  1  0
  2  3  1  0
  2  4  1  0
  4  5  1  0
  4 15  1  0
  5  6  1  0
  6  7  2  0
  6  8  1  0
  8  9  1  0
  8 11  1  0
  9 10  1  0
 11 12  1  0
 12 13  2  0
 12 14  1  0
 15 16  2  0
 15 17  1  0
 17 18  1  0
 18 19  1  0
 18 26  1  0
 19 20  1  0
 20 21  1  0
 20 25  1  0
 21 22  1  0
 22 23  1  0
 23 24  1  0
 24 25  1  0
 26 27  2  0
 26 28  1  0
 28 29  1  0
 29 30  1  0
 29 36  1  0
 30 31  1  0
 31 32  2  0
 31 35  1  0
 32 33  1  0
 33 34  1  0
 34 35  2  0
 36 37  2  0
M  END
>  <s_m_entry_id>  (239) 
469

>  <s_m_entry_name>  (239) 
3C-like_protease_GHDDI_ligprep.88

>  <s_m_Source_Path>  (239) 
/home/jgilaber/drug_learning/drug_learning/datasets/SAR1/GHDDI

>  <s_m_Source_File>  (239) 
3C-like_protease_GHDDI_ligprep.sdf

>  <i_m_Source_File_Index>  (239) 
88

>  <s_m_subgroup_title>  (239) 
3C-like_protease_GHDDI_ligprep

>  <s_m_subgroupid>  (239) 
3C-like_protease_GHDDI_ligprep

>  <b_m_subgroup_collapsed>  (239) 
0

$$$$
13678
     RDKit          2D

 42 43  0  0  1  0  0  0  0  0999 V2000
   -0.6158    4.5375    0.0000 C   0  0  0  0  0  0  0  0  0  0  0  0
   -1.3453    3.2269    0.0000 C   0  0  0  0  0  0  0  0  0  0  0  0
   -2.8452    3.2033    0.0000 C   0  0  0  0  0  0  0  0  0  0  0  0
   -0.5750    1.9398    0.0000 C   0  0  0  0  0  0  0  0  0  0  0  0
    0.9248    1.9633    0.0000 N   0  0  0  0  0  0  0  0  0  0  0  0
    1.6543    3.2740    0.0000 C   0  0  0  0  0  0  0  0  0  0  0  0
    0.8840    4.5611    0.0000 O   0  0  0  0  0  0  0  0  0  0  0  0
    3.1541    3.2975    0.0000 C   0  0  0  0  0  0  0  0  0  0  0  0
    3.8836    4.6082    0.0000 C   0  0  0  0  0  0  0  0  0  0  0  0
    3.9244    2.0104    0.0000 N   0  0  0  0  0  0  0  0  0  0  0  0
    5.4242    2.0339    0.0000 C   0  0  0  0  0  0  0  0  0  0  0  0
    6.1537    3.3446    0.0000 O   0  0  0  0  0  0  0  0  0  0  0  0
    6.1945    0.7468    0.0000 C   0  0  0  0  0  0  0  0  0  0  0  0
    7.6943    0.7704    0.0000 C   0  0  0  0  0  0  0  0  0  0  0  0
    8.4646   -0.5167    0.0000 O   0  0  0  0  0  0  0  0  0  0  0  0
    5.4650   -0.5638    0.0000 N   0  0  0  0  0  0  0  0  0  0  0  0
    6.2353   -1.8509    0.0000 C   0  0  0  0  0  0  0  0  0  0  0  0
    7.7351   -1.8274    0.0000 O   0  0  0  0  0  0  0  0  0  0  0  0
    5.5058   -3.1616    0.0000 C   0  0  0  0  0  0  0  0  0  0  0  0
   -1.3046    0.6291    0.0000 C   0  0  0  0  0  0  0  0  0  0  0  0
   -2.8044    0.6056    0.0000 O   0  0  0  0  0  0  0  0  0  0  0  0
   -0.5343   -0.6580    0.0000 N   0  0  0  0  0  0  0  0  0  0  0  0
   -1.2638   -1.9686    0.0000 C   0  0  0  0  0  0  0  0  0  0  0  0
   -0.4935   -3.2557    0.0000 C   0  0  0  0  0  0  0  0  0  0  0  0
    1.0063   -3.2322    0.0000 C   0  0  0  0  0  0  0  0  0  0  0  0
    1.7766   -4.5193    0.0000 C   0  0  0  0  0  0  0  0  0  0  0  0
    3.2764   -4.4958    0.0000 C   0  0  0  0  0  0  0  0  0  0  0  0
    4.0060   -3.1851    0.0000 C   0  0  0  0  0  0  0  0  0  0  0  0
    3.2357   -1.8980    0.0000 C   0  0  0  0  0  0  0  0  0  0  0  0
    1.7358   -1.9216    0.0000 C   0  0  0  0  0  0  0  0  0  0  0  0
   -2.7636   -1.9922    0.0000 C   0  0  0  0  0  0  0  0  0  0  0  0
   -3.4931   -3.3028    0.0000 O   0  0  0  0  0  0  0  0  0  0  0  0
   -3.5339   -0.7051    0.0000 N   0  0  0  0  0  0  0  0  0  0  0  0
   -5.0337   -0.7286    0.0000 C   0  0  0  0  0  0  0  0  0  0  0  0
   -5.8040    0.5585    0.0000 C   0  0  0  0  0  0  0  0  0  0  0  0
   -7.3038    0.5350    0.0000 C   0  0  0  0  0  0  0  0  0  0  0  0
   -8.1663   -0.6923    0.0000 C   0  0  0  0  0  0  0  0  0  0  0  0
   -9.6000   -0.2512    0.0000 N   0  0  0  0  0  0  0  0  0  0  0  0
   -9.6236    1.2486    0.0000 C   0  0  0  0  0  0  0  0  0  0  0  0
   -8.2044    1.7345    0.0000 N   0  0  0  0  0  0  0  0  0  0  0  0
   -5.7632   -2.0393    0.0000 C   0  0  0  0  0  0  0  0  0  0  0  0
   -7.2630   -2.0628    0.0000 O   0  0  0  0  0  0  0  0  0  0  0  0
  1  2  1  0
  2  3  1  0
  2  4  1  0
  4  5  1  0
  4 20  1  0
  5  6  1  0
  6  7  2  0
  6  8  1  0
  8  9  1  0
  8 10  1  0
 10 11  1  0
 11 12  2  0
 11 13  1  0
 13 14  1  0
 13 16  1  0
 14 15  1  0
 16 17  1  0
 17 18  2  0
 17 19  1  0
 20 21  2  0
 20 22  1  0
 22 23  1  0
 23 24  1  0
 23 31  1  0
 24 25  1  0
 25 26  2  0
 25 30  1  0
 26 27  1  0
 27 28  2  0
 28 29  1  0
 29 30  2  0
 31 32  2  0
 31 33  1  0
 33 34  1  0
 34 35  1  0
 34 41  1  0
 35 36  1  0
 36 37  2  0
 36 40  1  0
 37 38  1  0
 38 39  1  0
 39 40  2  0
 41 42  2  0
M  END
>  <s_m_entry_id>  (240) 
472

>  <s_m_entry_name>  (240) 
3C-like_protease_GHDDI_ligprep.91

>  <s_m_Source_Path>  (240) 
/home/jgilaber/drug_learning/drug_learning/datasets/SAR1/GHDDI

>  <s_m_Source_File>  (240) 
3C-like_protease_GHDDI_ligprep.sdf

>  <i_m_Source_File_Index>  (240) 
91

>  <s_m_subgroup_title>  (240) 
3C-like_protease_GHDDI_ligprep

>  <s_m_subgroupid>  (240) 
3C-like_protease_GHDDI_ligprep

>  <b_m_subgroup_collapsed>  (240) 
0

$$$$
13682
     RDKit          2D

 40 42  0  0  1  0  0  0  0  0999 V2000
   -9.5256   -0.0776    0.0000 C   0  0  0  0  0  0  0  0  0  0  0  0
   -8.5479   -1.2152    0.0000 C   0  0  0  0  0  0  0  0  0  0  0  0
   -7.0738   -0.9372    0.0000 O   0  0  0  0  0  0  0  0  0  0  0  0
   -6.0961   -2.0748    0.0000 C   0  0  0  0  0  0  0  0  0  0  0  0
   -6.5924   -3.4903    0.0000 O   0  0  0  0  0  0  0  0  0  0  0  0
   -4.6221   -1.7969    0.0000 C   0  0  0  0  0  0  0  0  0  0  0  0
   -3.6444   -2.9345    0.0000 C   0  0  0  0  0  0  0  0  0  0  0  0
   -2.1704   -2.6565    0.0000 C   0  0  0  0  0  0  0  0  0  0  0  0
   -1.1926   -3.7941    0.0000 C   0  0  0  0  0  0  0  0  0  0  0  0
    0.2814   -3.5162    0.0000 C   0  0  0  0  0  0  0  0  0  0  0  0
    1.2591   -4.6537    0.0000 C   0  0  0  0  0  0  0  0  0  0  0  0
    2.7331   -4.3758    0.0000 C   0  0  0  0  0  0  0  0  0  0  0  0
    3.2294   -2.9603    0.0000 C   0  0  0  0  0  0  0  0  0  0  0  0
    2.2517   -1.8227    0.0000 C   0  0  0  0  0  0  0  0  0  0  0  0
    0.7777   -2.1006    0.0000 C   0  0  0  0  0  0  0  0  0  0  0  0
   -1.6740   -1.2410    0.0000 N   0  0  0  0  0  0  0  0  0  0  0  0
   -2.6518   -0.1034    0.0000 C   0  0  0  0  0  0  0  0  0  0  0  0
   -4.1258   -0.3814    0.0000 O   0  0  0  0  0  0  0  0  0  0  0  0
   -2.1554    1.3121    0.0000 C   0  0  0  0  0  0  0  0  0  0  0  0
   -3.1332    2.4497    0.0000 C   0  0  0  0  0  0  0  0  0  0  0  0
   -2.6368    3.8652    0.0000 C   0  0  0  0  0  0  0  0  0  0  0  0
   -1.1628    4.1431    0.0000 C   0  0  0  0  0  0  0  0  0  0  0  0
   -0.6665    5.5586    0.0000 C   0  0  0  0  0  0  0  0  0  0  0  0
   -1.6442    6.6962    0.0000 C   0  0  0  0  0  0  0  0  0  0  0  0
   -3.1182    6.4183    0.0000 C   0  0  0  0  0  0  0  0  0  0  0  0
   -3.6146    5.0027    0.0000 C   0  0  0  0  0  0  0  0  0  0  0  0
   -0.6814    1.5900    0.0000 N   0  0  0  0  0  0  0  0  0  0  0  0
    0.2963    0.4524    0.0000 C   0  0  0  0  0  0  0  0  0  0  0  0
   -0.2000   -0.9631    0.0000 O   0  0  0  0  0  0  0  0  0  0  0  0
    1.7703    0.7304    0.0000 C   0  0  0  0  0  0  0  0  0  0  0  0
    2.7480   -0.4072    0.0000 C   0  0  0  0  0  0  0  0  0  0  0  0
    4.2221   -0.1293    0.0000 C   0  0  0  0  0  0  0  0  0  0  0  0
    4.7184    1.2863    0.0000 C   0  0  0  0  0  0  0  0  0  0  0  0
    6.1924    1.5642    0.0000 C   0  0  0  0  0  0  0  0  0  0  0  0
    7.1701    0.4266    0.0000 C   0  0  0  0  0  0  0  0  0  0  0  0
    6.6738   -0.9889    0.0000 C   0  0  0  0  0  0  0  0  0  0  0  0
    5.1998   -1.2668    0.0000 C   0  0  0  0  0  0  0  0  0  0  0  0
    8.6441    0.7046    0.0000 N   0  0  0  0  0  0  0  0  0  0  0  0
    9.1404    2.1201    0.0000 C   0  0  0  0  0  0  0  0  0  0  0  0
    9.6218   -0.4330    0.0000 C   0  0  0  0  0  0  0  0  0  0  0  0
  1  2  1  0
  2  3  1  0
  3  4  1  0
  4  5  2  0
  4  6  1  0
  6  7  2  0
  7  8  1  0
  8  9  1  0
  8 16  1  0
  9 10  1  0
 10 11  2  0
 10 15  1  0
 11 12  1  0
 12 13  2  0
 13 14  1  0
 14 15  2  0
 16 17  1  0
 17 18  2  0
 17 19  1  0
 19 20  1  0
 19 27  1  0
 20 21  1  0
 21 22  2  0
 21 26  1  0
 22 23  1  0
 23 24  2  0
 24 25  1  0
 25 26  2  0
 27 28  1  0
 28 29  2  0
 28 30  1  0
 30 31  2  0
 31 32  1  0
 32 33  2  0
 32 37  1  0
 33 34  1  0
 34 35  2  0
 35 36  1  0
 35 38  1  0
 36 37  2  0
 38 39  1  0
 38 40  1  0
M  END
>  <s_m_entry_id>  (241) 
479

>  <s_m_entry_name>  (241) 
3C-like_protease_GHDDI_ligprep.98

>  <s_m_Source_Path>  (241) 
/home/jgilaber/drug_learning/drug_learning/datasets/SAR1/GHDDI

>  <s_m_Source_File>  (241) 
3C-like_protease_GHDDI_ligprep.sdf

>  <i_m_Source_File_Index>  (241) 
98

>  <s_m_subgroup_title>  (241) 
3C-like_protease_GHDDI_ligprep

>  <s_m_subgroupid>  (241) 
3C-like_protease_GHDDI_ligprep

>  <b_m_subgroup_collapsed>  (241) 
0

$$$$
13684
     RDKit          2D

 15 16  0  0  1  0  0  0  0  0999 V2000
   -3.9766   -2.2450    0.0000 Cl  0  0  0  0  0  0  0  0  0  0  0  0
   -3.3943   -0.8627    0.0000 C   0  0  0  0  0  0  0  0  0  0  0  0
   -4.3003    0.3328    0.0000 C   0  0  0  0  0  0  0  0  0  0  0  0
   -3.7180    1.7152    0.0000 N   0  0  0  0  0  0  0  0  0  0  0  0
   -2.2297    1.9021    0.0000 C   0  0  0  0  0  0  0  0  0  0  0  0
   -1.3237    0.7066    0.0000 C   0  0  0  0  0  0  0  0  0  0  0  0
    0.1646    0.8935    0.0000 C   0  0  0  0  0  0  0  0  0  0  0  0
    1.0706   -0.3020    0.0000 C   0  0  0  0  0  0  0  0  0  0  0  0
    0.4883   -1.6843    0.0000 O   0  0  0  0  0  0  0  0  0  0  0  0
    2.5590   -0.1151    0.0000 C   0  0  0  0  0  0  0  0  0  0  0  0
    3.2826    1.1989    0.0000 C   0  0  0  0  0  0  0  0  0  0  0  0
    4.7558    0.9167    0.0000 C   0  0  0  0  0  0  0  0  0  0  0  0
    4.9427   -0.5716    0.0000 C   0  0  0  0  0  0  0  0  0  0  0  0
    3.5850   -1.2093    0.0000 S   0  0  0  0  0  0  0  0  0  0  0  0
   -1.9060   -0.6758    0.0000 C   0  0  0  0  0  0  0  0  0  0  0  0
  1  2  1  0
  2  3  2  0
  2 15  1  0
  3  4  1  0
  4  5  2  0
  5  6  1  0
  6  7  1  0
  6 15  2  0
  7  8  1  0
  8  9  2  0
  8 10  1  0
 10 11  2  0
 10 14  1  0
 11 12  1  0
 12 13  2  0
 13 14  1  0
M  END
>  <s_m_entry_id>  (242) 
481

>  <s_m_entry_name>  (242) 
3C-like_protease_GHDDI_ligprep.100

>  <s_m_Source_Path>  (242) 
/home/jgilaber/drug_learning/drug_learning/datasets/SAR1/GHDDI

>  <s_m_Source_File>  (242) 
3C-like_protease_GHDDI_ligprep.sdf

>  <i_m_Source_File_Index>  (242) 
100

>  <s_m_subgroup_title>  (242) 
3C-like_protease_GHDDI_ligprep

>  <s_m_subgroupid>  (242) 
3C-like_protease_GHDDI_ligprep

>  <b_m_subgroup_collapsed>  (242) 
0

$$$$
13686
     RDKit          2D

 39 44  0  0  1  0  0  0  0  0999 V2000
   -2.3576   -1.6192    0.0000 O   0  0  0  0  0  0  0  0  0  0  0  0
   -0.9862   -1.0116    0.0000 C   0  0  0  0  0  0  0  0  0  0  0  0
    0.2257   -1.8956    0.0000 C   0  0  0  0  0  0  0  0  0  0  0  0
    0.0662   -3.3870    0.0000 N   0  0  0  0  0  0  0  0  0  0  0  0
   -1.2343   -4.1346    0.0000 N   0  0  0  0  0  0  0  0  0  0  0  0
   -0.9251   -5.6024    0.0000 N   0  0  0  0  0  0  0  0  0  0  0  0
    0.5664   -5.7620    0.0000 C   0  0  0  0  0  0  0  0  0  0  0  0
    1.4458   -6.9771    0.0000 C   0  0  0  0  0  0  0  0  0  0  0  0
    2.9379   -6.8231    0.0000 C   0  0  0  0  0  0  0  0  0  0  0  0
    3.5505   -5.4539    0.0000 C   0  0  0  0  0  0  0  0  0  0  0  0
    2.6711   -4.2388    0.0000 C   0  0  0  0  0  0  0  0  0  0  0  0
    1.1790   -4.3928    0.0000 C   0  0  0  0  0  0  0  0  0  0  0  0
   -0.8266    0.4799    0.0000 N   0  0  0  0  0  0  0  0  0  0  0  0
   -2.0385    1.3638    0.0000 C   0  0  0  0  0  0  0  0  0  0  0  0
   -3.4099    0.7562    0.0000 C   0  0  0  0  0  0  0  0  0  0  0  0
   -3.5695   -0.7353    0.0000 O   0  0  0  0  0  0  0  0  0  0  0  0
   -4.6218    1.6401    0.0000 N   0  0  0  0  0  0  0  0  0  0  0  0
   -5.9933    1.0326    0.0000 C   0  0  0  0  0  0  0  0  0  0  0  0
   -6.3079   -0.4341    0.0000 C   0  0  0  0  0  0  0  0  0  0  0  0
   -7.7999   -0.5881    0.0000 C   0  0  0  0  0  0  0  0  0  0  0  0
   -8.4075    0.7834    0.0000 C   0  0  0  0  0  0  0  0  0  0  0  0
   -7.2909    1.7850    0.0000 C   0  0  0  0  0  0  0  0  0  0  0  0
   -1.8789    2.8553    0.0000 C   0  0  0  0  0  0  0  0  0  0  0  0
   -2.9918    3.8610    0.0000 C   0  0  0  0  0  0  0  0  0  0  0  0
   -2.3792    5.2302    0.0000 C   0  0  0  0  0  0  0  0  0  0  0  0
   -0.8877    5.0707    0.0000 S   0  0  0  0  0  0  0  0  0  0  0  0
   -0.5785    3.6029    0.0000 C   0  0  0  0  0  0  0  0  0  0  0  0
    0.5448    1.0874    0.0000 C   0  0  0  0  0  0  0  0  0  0  0  0
    1.7567    0.2035    0.0000 C   0  0  0  0  0  0  0  0  0  0  0  0
    3.1282    0.8111    0.0000 C   0  0  0  0  0  0  0  0  0  0  0  0
    3.2877    2.3026    0.0000 C   0  0  0  0  0  0  0  0  0  0  0  0
    4.6592    2.9101    0.0000 N   0  0  0  0  0  0  0  0  0  0  0  0
    5.8711    2.0262    0.0000 C   0  0  0  0  0  0  0  0  0  0  0  0
    5.7115    0.5347    0.0000 O   0  0  0  0  0  0  0  0  0  0  0  0
    7.2425    2.6338    0.0000 C   0  0  0  0  0  0  0  0  0  0  0  0
    8.1264    3.8457    0.0000 C   0  0  0  0  0  0  0  0  0  0  0  0
    8.7340    2.4742    0.0000 C   0  0  0  0  0  0  0  0  0  0  0  0
    2.0758    3.1865    0.0000 C   0  0  0  0  0  0  0  0  0  0  0  0
    0.7044    2.5789    0.0000 C   0  0  0  0  0  0  0  0  0  0  0  0
  1  2  2  0
  2  3  1  0
  2 13  1  0
  3  4  1  0
  4  5  1  0
  4 12  1  0
  5  6  2  0
  6  7  1  0
  7  8  1  0
  7 12  2  0
  8  9  2  0
  9 10  1  0
 10 11  2  0
 11 12  1  0
 13 14  1  0
 13 28  1  0
 14 15  1  0
 14 23  1  0
 15 16  2  0
 15 17  1  0
 17 18  1  0
 18 19  1  0
 18 22  1  0
 19 20  1  0
 20 21  1  0
 21 22  1  0
 23 24  1  0
 23 27  2  0
 24 25  2  0
 25 26  1  0
 26 27  1  0
 28 29  2  0
 28 39  1  0
 29 30  1  0
 30 31  2  0
 31 32  1  0
 31 38  1  0
 32 33  1  0
 33 34  2  0
 33 35  1  0
 35 36  1  0
 35 37  1  0
 36 37  1  0
 38 39  2  0
M  END
>  <s_m_entry_id>  (243) 
485

>  <s_m_entry_name>  (243) 
3C-like_protease_GHDDI_ligprep.104

>  <s_m_Source_Path>  (243) 
/home/jgilaber/drug_learning/drug_learning/datasets/SAR1/GHDDI

>  <s_m_Source_File>  (243) 
3C-like_protease_GHDDI_ligprep.sdf

>  <i_m_Source_File_Index>  (243) 
104

>  <s_m_subgroup_title>  (243) 
3C-like_protease_GHDDI_ligprep

>  <s_m_subgroupid>  (243) 
3C-like_protease_GHDDI_ligprep

>  <b_m_subgroup_collapsed>  (243) 
0

$$$$
13687
     RDKit          2D

 40 42  0  0  1  0  0  0  0  0999 V2000
   -9.5256   -0.0776    0.0000 C   0  0  0  0  0  0  0  0  0  0  0  0
   -8.5479   -1.2152    0.0000 C   0  0  0  0  0  0  0  0  0  0  0  0
   -7.0738   -0.9372    0.0000 O   0  0  0  0  0  0  0  0  0  0  0  0
   -6.0961   -2.0748    0.0000 C   0  0  0  0  0  0  0  0  0  0  0  0
   -6.5924   -3.4903    0.0000 O   0  0  0  0  0  0  0  0  0  0  0  0
   -4.6221   -1.7969    0.0000 C   0  0  0  0  0  0  0  0  0  0  0  0
   -3.6444   -2.9345    0.0000 C   0  0  0  0  0  0  0  0  0  0  0  0
   -2.1704   -2.6565    0.0000 C   0  0  0  0  0  0  0  0  0  0  0  0
   -1.1926   -3.7941    0.0000 C   0  0  0  0  0  0  0  0  0  0  0  0
    0.2814   -3.5162    0.0000 C   0  0  0  0  0  0  0  0  0  0  0  0
    1.2591   -4.6537    0.0000 C   0  0  0  0  0  0  0  0  0  0  0  0
    2.7331   -4.3758    0.0000 C   0  0  0  0  0  0  0  0  0  0  0  0
    3.2294   -2.9603    0.0000 C   0  0  0  0  0  0  0  0  0  0  0  0
    2.2517   -1.8227    0.0000 C   0  0  0  0  0  0  0  0  0  0  0  0
    0.7777   -2.1006    0.0000 C   0  0  0  0  0  0  0  0  0  0  0  0
   -1.6740   -1.2410    0.0000 N   0  0  0  0  0  0  0  0  0  0  0  0
   -2.6518   -0.1034    0.0000 C   0  0  0  0  0  0  0  0  0  0  0  0
   -4.1258   -0.3814    0.0000 O   0  0  0  0  0  0  0  0  0  0  0  0
   -2.1554    1.3121    0.0000 C   0  0  0  0  0  0  0  0  0  0  0  0
   -3.1332    2.4497    0.0000 C   0  0  0  0  0  0  0  0  0  0  0  0
   -2.6368    3.8652    0.0000 C   0  0  0  0  0  0  0  0  0  0  0  0
   -1.1628    4.1431    0.0000 C   0  0  0  0  0  0  0  0  0  0  0  0
   -0.6665    5.5586    0.0000 C   0  0  0  0  0  0  0  0  0  0  0  0
   -1.6442    6.6962    0.0000 C   0  0  0  0  0  0  0  0  0  0  0  0
   -3.1182    6.4183    0.0000 C   0  0  0  0  0  0  0  0  0  0  0  0
   -3.6146    5.0027    0.0000 C   0  0  0  0  0  0  0  0  0  0  0  0
   -0.6814    1.5900    0.0000 N   0  0  0  0  0  0  0  0  0  0  0  0
    0.2963    0.4524    0.0000 C   0  0  0  0  0  0  0  0  0  0  0  0
   -0.2000   -0.9631    0.0000 O   0  0  0  0  0  0  0  0  0  0  0  0
    1.7703    0.7304    0.0000 C   0  0  0  0  0  0  0  0  0  0  0  0
    2.7480   -0.4072    0.0000 C   0  0  0  0  0  0  0  0  0  0  0  0
    4.2221   -0.1293    0.0000 C   0  0  0  0  0  0  0  0  0  0  0  0
    4.7184    1.2863    0.0000 C   0  0  0  0  0  0  0  0  0  0  0  0
    6.1924    1.5642    0.0000 C   0  0  0  0  0  0  0  0  0  0  0  0
    7.1701    0.4266    0.0000 C   0  0  0  0  0  0  0  0  0  0  0  0
    6.6738   -0.9889    0.0000 C   0  0  0  0  0  0  0  0  0  0  0  0
    5.1998   -1.2668    0.0000 C   0  0  0  0  0  0  0  0  0  0  0  0
    8.6441    0.7046    0.0000 N   0  0  0  0  0  0  0  0  0  0  0  0
    9.1404    2.1201    0.0000 C   0  0  0  0  0  0  0  0  0  0  0  0
    9.6218   -0.4330    0.0000 C   0  0  0  0  0  0  0  0  0  0  0  0
  1  2  1  0
  2  3  1  0
  3  4  1  0
  4  5  2  0
  4  6  1  0
  6  7  2  0
  7  8  1  0
  8  9  1  0
  8 16  1  0
  9 10  1  0
 10 11  2  0
 10 15  1  0
 11 12  1  0
 12 13  2  0
 13 14  1  0
 14 15  2  0
 16 17  1  0
 17 18  2  0
 17 19  1  0
 19 20  1  0
 19 27  1  0
 20 21  1  0
 21 22  2  0
 21 26  1  0
 22 23  1  0
 23 24  2  0
 24 25  1  0
 25 26  2  0
 27 28  1  0
 28 29  2  0
 28 30  1  0
 30 31  2  0
 31 32  1  0
 32 33  2  0
 32 37  1  0
 33 34  1  0
 34 35  2  0
 35 36  1  0
 35 38  1  0
 36 37  2  0
 38 39  1  0
 38 40  1  0
M  END
>  <s_m_entry_id>  (244) 
487

>  <s_m_entry_name>  (244) 
3C-like_protease_GHDDI_ligprep.106

>  <s_m_Source_Path>  (244) 
/home/jgilaber/drug_learning/drug_learning/datasets/SAR1/GHDDI

>  <s_m_Source_File>  (244) 
3C-like_protease_GHDDI_ligprep.sdf

>  <i_m_Source_File_Index>  (244) 
106

>  <s_m_subgroup_title>  (244) 
3C-like_protease_GHDDI_ligprep

>  <s_m_subgroupid>  (244) 
3C-like_protease_GHDDI_ligprep

>  <b_m_subgroup_collapsed>  (244) 
0

$$$$
13688
     RDKit          2D

 37 39  0  0  1  0  0  0  0  0999 V2000
   -9.7341   -1.3999    0.0000 C   0  0  0  0  0  0  0  0  0  0  0  0
   -8.2512   -1.1746    0.0000 O   0  0  0  0  0  0  0  0  0  0  0  0
   -7.7047    0.2223    0.0000 C   0  0  0  0  0  0  0  0  0  0  0  0
   -8.6413    1.3940    0.0000 C   0  0  0  0  0  0  0  0  0  0  0  0
   -8.0949    2.7909    0.0000 C   0  0  0  0  0  0  0  0  0  0  0  0
   -6.6119    3.0162    0.0000 C   0  0  0  0  0  0  0  0  0  0  0  0
   -5.6753    1.8445    0.0000 C   0  0  0  0  0  0  0  0  0  0  0  0
   -4.1779    1.7565    0.0000 N   0  0  0  0  0  0  0  0  0  0  0  0
   -3.7989    0.3052    0.0000 C   0  0  0  0  0  0  0  0  0  0  0  0
   -5.0620   -0.5038    0.0000 C   0  0  0  0  0  0  0  0  0  0  0  0
   -6.2218    0.4476    0.0000 C   0  0  0  0  0  0  0  0  0  0  0  0
   -2.4019   -0.2412    0.0000 C   0  0  0  0  0  0  0  0  0  0  0  0
   -1.2303    0.6954    0.0000 O   0  0  0  0  0  0  0  0  0  0  0  0
   -2.1767   -1.7242    0.0000 N   0  0  0  0  0  0  0  0  0  0  0  0
   -0.7798   -2.2706    0.0000 C   0  0  0  0  0  0  0  0  0  0  0  0
   -0.5545   -3.7536    0.0000 C   0  0  0  0  0  0  0  0  0  0  0  0
    0.8424   -4.3000    0.0000 C   0  0  0  0  0  0  0  0  0  0  0  0
    1.0677   -5.7830    0.0000 C   0  0  0  0  0  0  0  0  0  0  0  0
    2.0141   -3.3634    0.0000 C   0  0  0  0  0  0  0  0  0  0  0  0
    0.3919   -1.3340    0.0000 C   0  0  0  0  0  0  0  0  0  0  0  0
    0.1667    0.1490    0.0000 O   0  0  0  0  0  0  0  0  0  0  0  0
    1.7889   -1.8805    0.0000 N   0  0  0  0  0  0  0  0  0  0  0  0
    2.9605   -0.9439    0.0000 C   0  0  0  0  0  0  0  0  0  0  0  0
    4.3575   -1.4903    0.0000 C   0  0  0  0  0  0  0  0  0  0  0  0
    5.5292   -0.5537    0.0000 C   0  0  0  0  0  0  0  0  0  0  0  0
    5.4601    0.9447    0.0000 C   0  0  0  0  0  0  0  0  0  0  0  0
    6.8639    1.4734    0.0000 C   0  0  0  0  0  0  0  0  0  0  0  0
    7.8005    0.3017    0.0000 N   0  0  0  0  0  0  0  0  0  0  0  0
    6.9756   -0.9511    0.0000 C   0  0  0  0  0  0  0  0  0  0  0  0
    7.5042   -2.3549    0.0000 O   0  0  0  0  0  0  0  0  0  0  0  0
    2.7353    0.5391    0.0000 C   0  0  0  0  0  0  0  0  0  0  0  0
    1.3383    1.0855    0.0000 O   0  0  0  0  0  0  0  0  0  0  0  0
    3.9070    1.4757    0.0000 C   0  0  0  0  0  0  0  0  0  0  0  0
    3.6817    2.9587    0.0000 N   0  0  0  0  0  0  0  0  0  0  0  0
    4.8534    3.8952    0.0000 C   0  0  0  0  0  0  0  0  0  0  0  0
    6.2503    3.3488    0.0000 O   0  0  0  0  0  0  0  0  0  0  0  0
    4.6281    5.3782    0.0000 C   0  0  0  0  0  0  0  0  0  0  0  0
  1  2  1  0
  2  3  1  0
  3  4  2  0
  3 11  1  0
  4  5  1  0
  5  6  2  0
  6  7  1  0
  7  8  1  0
  7 11  2  0
  8  9  1  0
  9 10  2  0
  9 12  1  0
 10 11  1  0
 12 13  2  0
 12 14  1  0
 14 15  1  0
 15 16  1  0
 15 20  1  0
 16 17  1  0
 17 18  1  0
 17 19  1  0
 20 21  2  0
 20 22  1  0
 22 23  1  0
 23 24  1  0
 23 31  1  0
 24 25  1  0
 25 26  1  0
 25 29  1  0
 26 27  1  0
 27 28  1  0
 28 29  1  0
 29 30  2  0
 31 32  2  0
 31 33  1  0
 33 34  1  0
 34 35  1  0
 35 36  2  0
 35 37  1  0
M  END
>  <s_m_entry_id>  (245) 
488

>  <s_m_entry_name>  (245) 
3C-like_protease_GHDDI_ligprep.107

>  <s_m_Source_Path>  (245) 
/home/jgilaber/drug_learning/drug_learning/datasets/SAR1/GHDDI

>  <s_m_Source_File>  (245) 
3C-like_protease_GHDDI_ligprep.sdf

>  <i_m_Source_File_Index>  (245) 
107

>  <s_m_subgroup_title>  (245) 
3C-like_protease_GHDDI_ligprep

>  <s_m_subgroupid>  (245) 
3C-like_protease_GHDDI_ligprep

>  <b_m_subgroup_collapsed>  (245) 
0

$$$$
13690
     RDKit          2D

 37 41  0  0  1  0  0  0  0  0999 V2000
    7.6500    3.7671    0.0000 C   0  0  0  0  0  0  0  0  0  0  0  0
    6.1500    3.7804    0.0000 C   0  0  0  0  0  0  0  0  0  0  0  0
    5.4116    5.0860    0.0000 C   0  0  0  0  0  0  0  0  0  0  0  0
    5.3885    2.4880    0.0000 C   0  0  0  0  0  0  0  0  0  0  0  0
    3.8886    2.5013    0.0000 N   0  0  0  0  0  0  0  0  0  0  0  0
    3.1271    1.2090    0.0000 C   0  0  0  0  0  0  0  0  0  0  0  0
    3.8656   -0.0966    0.0000 O   0  0  0  0  0  0  0  0  0  0  0  0
    1.6272    1.2223    0.0000 C   0  0  0  0  0  0  0  0  0  0  0  0
    0.8657   -0.0700    0.0000 N   0  0  0  0  0  0  0  0  0  0  0  0
    1.6041   -1.3757    0.0000 C   0  0  0  0  0  0  0  0  0  0  0  0
    3.1041   -1.3890    0.0000 O   0  0  0  0  0  0  0  0  0  0  0  0
    0.8426   -2.6680    0.0000 N   0  0  0  0  0  0  0  0  0  0  0  0
   -0.6505   -2.8116    0.0000 N   0  0  0  0  0  0  0  0  0  0  0  0
   -0.9753   -4.2760    0.0000 N   0  0  0  0  0  0  0  0  0  0  0  0
    0.3170   -5.0375    0.0000 C   0  0  0  0  0  0  0  0  0  0  0  0
    0.6158   -6.5074    0.0000 C   0  0  0  0  0  0  0  0  0  0  0  0
    2.0383   -6.9836    0.0000 C   0  0  0  0  0  0  0  0  0  0  0  0
    3.1618   -5.9898    0.0000 C   0  0  0  0  0  0  0  0  0  0  0  0
    2.8630   -4.5198    0.0000 C   0  0  0  0  0  0  0  0  0  0  0  0
    1.4406   -4.0437    0.0000 C   0  0  0  0  0  0  0  0  0  0  0  0
   -0.6343   -0.0567    0.0000 C   0  0  0  0  0  0  0  0  0  0  0  0
   -1.3727    1.2489    0.0000 C   0  0  0  0  0  0  0  0  0  0  0  0
   -2.8727    1.2622    0.0000 C   0  0  0  0  0  0  0  0  0  0  0  0
   -3.6342   -0.0301    0.0000 C   0  0  0  0  0  0  0  0  0  0  0  0
   -5.1341   -0.0168    0.0000 N   0  0  0  0  0  0  0  0  0  0  0  0
   -5.8725    1.2888    0.0000 C   0  0  0  0  0  0  0  0  0  0  0  0
   -5.1111    2.5811    0.0000 O   0  0  0  0  0  0  0  0  0  0  0  0
   -7.3725    1.3021    0.0000 C   0  0  0  0  0  0  0  0  0  0  0  0
   -8.6781    0.5636    0.0000 C   0  0  0  0  0  0  0  0  0  0  0  0
   -8.6648    2.0636    0.0000 C   0  0  0  0  0  0  0  0  0  0  0  0
   -2.8957   -1.3358    0.0000 C   0  0  0  0  0  0  0  0  0  0  0  0
   -1.3958   -1.3491    0.0000 C   0  0  0  0  0  0  0  0  0  0  0  0
    0.8887    2.5279    0.0000 C   0  0  0  0  0  0  0  0  0  0  0  0
   -0.6016    2.6979    0.0000 C   0  0  0  0  0  0  0  0  0  0  0  0
   -0.9005    4.1679    0.0000 C   0  0  0  0  0  0  0  0  0  0  0  0
    0.4052    4.9063    0.0000 S   0  0  0  0  0  0  0  0  0  0  0  0
    1.5109    3.8928    0.0000 C   0  0  0  0  0  0  0  0  0  0  0  0
  1  2  1  0
  2  3  1  0
  2  4  1  0
  4  5  1  0
  5  6  1  0
  6  7  2  0
  6  8  1  0
  8  9  1  0
  8 33  1  0
  9 10  1  0
  9 21  1  0
 10 11  2  0
 10 12  1  0
 12 13  1  0
 12 20  1  0
 13 14  2  0
 14 15  1  0
 15 16  1  0
 15 20  2  0
 16 17  2  0
 17 18  1  0
 18 19  2  0
 19 20  1  0
 21 22  2  0
 21 32  1  0
 22 23  1  0
 23 24  2  0
 24 25  1  0
 24 31  1  0
 25 26  1  0
 26 27  2  0
 26 28  1  0
 28 29  1  0
 28 30  1  0
 29 30  1  0
 31 32  2  0
 33 34  1  0
 33 37  2  0
 34 35  2  0
 35 36  1  0
 36 37  1  0
M  END
>  <s_m_entry_id>  (246) 
490

>  <s_m_entry_name>  (246) 
3C-like_protease_GHDDI_ligprep.109

>  <s_m_Source_Path>  (246) 
/home/jgilaber/drug_learning/drug_learning/datasets/SAR1/GHDDI

>  <s_m_Source_File>  (246) 
3C-like_protease_GHDDI_ligprep.sdf

>  <i_m_Source_File_Index>  (246) 
109

>  <s_m_subgroup_title>  (246) 
3C-like_protease_GHDDI_ligprep

>  <s_m_subgroupid>  (246) 
3C-like_protease_GHDDI_ligprep

>  <b_m_subgroup_collapsed>  (246) 
0

$$$$
13691
     RDKit          2D

 41 46  0  0  1  0  0  0  0  0999 V2000
   -1.2596   -2.4107    0.0000 O   0  0  0  0  0  0  0  0  0  0  0  0
   -0.0979   -1.4618    0.0000 C   0  0  0  0  0  0  0  0  0  0  0  0
    1.3047   -1.9934    0.0000 C   0  0  0  0  0  0  0  0  0  0  0  0
    1.5457   -3.4739    0.0000 N   0  0  0  0  0  0  0  0  0  0  0  0
    0.4895   -4.5391    0.0000 N   0  0  0  0  0  0  0  0  0  0  0  0
    1.1762   -5.8727    0.0000 N   0  0  0  0  0  0  0  0  0  0  0  0
    2.6567   -5.6317    0.0000 C   0  0  0  0  0  0  0  0  0  0  0  0
    3.8264   -6.5707    0.0000 C   0  0  0  0  0  0  0  0  0  0  0  0
    5.2245   -6.0272    0.0000 C   0  0  0  0  0  0  0  0  0  0  0  0
    5.4529   -4.5447    0.0000 C   0  0  0  0  0  0  0  0  0  0  0  0
    4.2831   -3.6057    0.0000 C   0  0  0  0  0  0  0  0  0  0  0  0
    2.8851   -4.1492    0.0000 C   0  0  0  0  0  0  0  0  0  0  0  0
   -0.3389    0.0187    0.0000 N   0  0  0  0  0  0  0  0  0  0  0  0
   -1.7415    0.5503    0.0000 C   0  0  0  0  0  0  0  0  0  0  0  0
   -2.9032   -0.3986    0.0000 C   0  0  0  0  0  0  0  0  0  0  0  0
   -2.6623   -1.8791    0.0000 O   0  0  0  0  0  0  0  0  0  0  0  0
   -4.3058    0.1330    0.0000 N   0  0  0  0  0  0  0  0  0  0  0  0
   -5.4675   -0.8159    0.0000 C   0  0  0  0  0  0  0  0  0  0  0  0
   -6.8702   -0.2844    0.0000 C   0  0  0  0  0  0  0  0  0  0  0  0
   -7.1111    1.1962    0.0000 C   0  0  0  0  0  0  0  0  0  0  0  0
   -8.5138    1.7278    0.0000 C   0  0  0  0  0  0  0  0  0  0  0  0
   -9.6755    0.7788    0.0000 C   0  0  0  0  0  0  0  0  0  0  0  0
   -9.4345   -0.7017    0.0000 C   0  0  0  0  0  0  0  0  0  0  0  0
   -8.0319   -1.2333    0.0000 C   0  0  0  0  0  0  0  0  0  0  0  0
   -1.9825    2.0308    0.0000 C   0  0  0  0  0  0  0  0  0  0  0  0
   -3.3219    2.7061    0.0000 C   0  0  0  0  0  0  0  0  0  0  0  0
   -3.0935    4.1887    0.0000 C   0  0  0  0  0  0  0  0  0  0  0  0
   -1.6130    4.4296    0.0000 S   0  0  0  0  0  0  0  0  0  0  0  0
   -0.9263    3.0960    0.0000 C   0  0  0  0  0  0  0  0  0  0  0  0
    0.8228    0.9677    0.0000 C   0  0  0  0  0  0  0  0  0  0  0  0
    2.2255    0.4361    0.0000 C   0  0  0  0  0  0  0  0  0  0  0  0
    3.3872    1.3850    0.0000 C   0  0  0  0  0  0  0  0  0  0  0  0
    3.1462    2.8655    0.0000 C   0  0  0  0  0  0  0  0  0  0  0  0
    4.3079    3.8144    0.0000 N   0  0  0  0  0  0  0  0  0  0  0  0
    5.7106    3.2828    0.0000 C   0  0  0  0  0  0  0  0  0  0  0  0
    5.9515    1.8023    0.0000 O   0  0  0  0  0  0  0  0  0  0  0  0
    6.8723    4.2318    0.0000 C   0  0  0  0  0  0  0  0  0  0  0  0
    7.4038    5.6344    0.0000 C   0  0  0  0  0  0  0  0  0  0  0  0
    8.3528    4.4727    0.0000 C   0  0  0  0  0  0  0  0  0  0  0  0
    1.7436    3.3971    0.0000 C   0  0  0  0  0  0  0  0  0  0  0  0
    0.5819    2.4482    0.0000 C   0  0  0  0  0  0  0  0  0  0  0  0
  1  2  2  0
  2  3  1  0
  2 13  1  0
  3  4  1  0
  4  5  1  0
  4 12  1  0
  5  6  2  0
  6  7  1  0
  7  8  1  0
  7 12  2  0
  8  9  2  0
  9 10  1  0
 10 11  2  0
 11 12  1  0
 13 14  1  0
 13 30  1  0
 14 15  1  0
 14 25  1  0
 15 16  2  0
 15 17  1  0
 17 18  1  0
 18 19  1  0
 19 20  2  0
 19 24  1  0
 20 21  1  0
 21 22  2  0
 22 23  1  0
 23 24  2  0
 25 26  1  0
 25 29  2  0
 26 27  2  0
 27 28  1  0
 28 29  1  0
 30 31  2  0
 30 41  1  0
 31 32  1  0
 32 33  2  0
 33 34  1  0
 33 40  1  0
 34 35  1  0
 35 36  2  0
 35 37  1  0
 37 38  1  0
 37 39  1  0
 38 39  1  0
 40 41  2  0
M  END
>  <s_m_entry_id>  (247) 
492

>  <s_m_entry_name>  (247) 
3C-like_protease_GHDDI_ligprep.111

>  <s_m_Source_Path>  (247) 
/home/jgilaber/drug_learning/drug_learning/datasets/SAR1/GHDDI

>  <s_m_Source_File>  (247) 
3C-like_protease_GHDDI_ligprep.sdf

>  <i_m_Source_File_Index>  (247) 
111

>  <s_m_subgroup_title>  (247) 
3C-like_protease_GHDDI_ligprep

>  <s_m_subgroupid>  (247) 
3C-like_protease_GHDDI_ligprep

>  <b_m_subgroup_collapsed>  (247) 
0

$$$$
13692
     RDKit          2D

 40 45  0  0  1  0  0  0  0  0999 V2000
   -2.1463   -1.6206    0.0000 O   0  0  0  0  0  0  0  0  0  0  0  0
   -0.7754   -1.0117    0.0000 C   0  0  0  0  0  0  0  0  0  0  0  0
    0.4373   -1.8944    0.0000 C   0  0  0  0  0  0  0  0  0  0  0  0
    0.2793   -3.3860    0.0000 N   0  0  0  0  0  0  0  0  0  0  0  0
   -1.0204   -4.1349    0.0000 N   0  0  0  0  0  0  0  0  0  0  0  0
   -0.7098   -5.6024    0.0000 N   0  0  0  0  0  0  0  0  0  0  0  0
    0.7819   -5.7605    0.0000 C   0  0  0  0  0  0  0  0  0  0  0  0
    1.6625   -6.9748    0.0000 C   0  0  0  0  0  0  0  0  0  0  0  0
    3.1544   -6.8193    0.0000 C   0  0  0  0  0  0  0  0  0  0  0  0
    3.7657   -5.4495    0.0000 C   0  0  0  0  0  0  0  0  0  0  0  0
    2.8850   -4.2352    0.0000 C   0  0  0  0  0  0  0  0  0  0  0  0
    1.3931   -4.3907    0.0000 C   0  0  0  0  0  0  0  0  0  0  0  0
   -0.6174    0.4800    0.0000 N   0  0  0  0  0  0  0  0  0  0  0  0
   -1.8301    1.3627    0.0000 C   0  0  0  0  0  0  0  0  0  0  0  0
   -3.2010    0.7537    0.0000 C   0  0  0  0  0  0  0  0  0  0  0  0
   -3.3590   -0.7379    0.0000 O   0  0  0  0  0  0  0  0  0  0  0  0
   -4.4137    1.6365    0.0000 N   0  0  0  0  0  0  0  0  0  0  0  0
   -5.7846    1.0275    0.0000 C   0  0  0  0  0  0  0  0  0  0  0  0
   -6.9974    1.9102    0.0000 C   0  0  0  0  0  0  0  0  0  0  0  0
   -8.3682    1.3013    0.0000 C   0  0  0  0  0  0  0  0  0  0  0  0
   -8.5263   -0.1903    0.0000 C   0  0  0  0  0  0  0  0  0  0  0  0
   -7.3135   -1.0731    0.0000 C   0  0  0  0  0  0  0  0  0  0  0  0
   -5.9427   -0.4641    0.0000 C   0  0  0  0  0  0  0  0  0  0  0  0
   -1.6721    2.8543    0.0000 C   0  0  0  0  0  0  0  0  0  0  0  0
   -2.7859    3.8590    0.0000 C   0  0  0  0  0  0  0  0  0  0  0  0
   -2.1747    5.2288    0.0000 C   0  0  0  0  0  0  0  0  0  0  0  0
   -0.6830    5.0707    0.0000 S   0  0  0  0  0  0  0  0  0  0  0  0
   -0.3724    3.6032    0.0000 C   0  0  0  0  0  0  0  0  0  0  0  0
    0.7535    1.0889    0.0000 C   0  0  0  0  0  0  0  0  0  0  0  0
    1.9662    0.2062    0.0000 C   0  0  0  0  0  0  0  0  0  0  0  0
    3.3371    0.8151    0.0000 C   0  0  0  0  0  0  0  0  0  0  0  0
    3.4952    2.3068    0.0000 C   0  0  0  0  0  0  0  0  0  0  0  0
    4.8660    2.9157    0.0000 N   0  0  0  0  0  0  0  0  0  0  0  0
    6.0788    2.0330    0.0000 C   0  0  0  0  0  0  0  0  0  0  0  0
    5.9207    0.5413    0.0000 O   0  0  0  0  0  0  0  0  0  0  0  0
    7.4496    2.6419    0.0000 C   0  0  0  0  0  0  0  0  0  0  0  0
    8.3323    3.8547    0.0000 C   0  0  0  0  0  0  0  0  0  0  0  0
    8.9413    2.4839    0.0000 C   0  0  0  0  0  0  0  0  0  0  0  0
    2.2824    3.1895    0.0000 C   0  0  0  0  0  0  0  0  0  0  0  0
    0.9115    2.5805    0.0000 C   0  0  0  0  0  0  0  0  0  0  0  0
  1  2  2  0
  2  3  1  0
  2 13  1  0
  3  4  1  0
  4  5  1  0
  4 12  1  0
  5  6  2  0
  6  7  1  0
  7  8  1  0
  7 12  2  0
  8  9  2  0
  9 10  1  0
 10 11  2  0
 11 12  1  0
 13 14  1  0
 13 29  1  0
 14 15  1  0
 14 24  1  0
 15 16  2  0
 15 17  1  0
 17 18  1  0
 18 19  1  0
 18 23  1  0
 19 20  1  0
 20 21  1  0
 21 22  1  0
 22 23  1  0
 24 25  1  0
 24 28  2  0
 25 26  2  0
 26 27  1  0
 27 28  1  0
 29 30  2  0
 29 40  1  0
 30 31  1  0
 31 32  2  0
 32 33  1  0
 32 39  1  0
 33 34  1  0
 34 35  2  0
 34 36  1  0
 36 37  1  0
 36 38  1  0
 37 38  1  0
 39 40  2  0
M  END
>  <s_m_entry_id>  (248) 
495

>  <s_m_entry_name>  (248) 
3C-like_protease_GHDDI_ligprep.114

>  <s_m_Source_Path>  (248) 
/home/jgilaber/drug_learning/drug_learning/datasets/SAR1/GHDDI

>  <s_m_Source_File>  (248) 
3C-like_protease_GHDDI_ligprep.sdf

>  <i_m_Source_File_Index>  (248) 
114

>  <s_m_subgroup_title>  (248) 
3C-like_protease_GHDDI_ligprep

>  <s_m_subgroupid>  (248) 
3C-like_protease_GHDDI_ligprep

>  <b_m_subgroup_collapsed>  (248) 
0

$$$$
13701
     RDKit          2D

 37 42  0  0  1  0  0  0  0  0999 V2000
   -2.8318   -1.5023    0.0000 O   0  0  0  0  0  0  0  0  0  0  0  0
   -1.4391   -0.9452    0.0000 C   0  0  0  0  0  0  0  0  0  0  0  0
   -0.2603   -1.8729    0.0000 C   0  0  0  0  0  0  0  0  0  0  0  0
   -0.4743   -3.3575    0.0000 N   0  0  0  0  0  0  0  0  0  0  0  0
   -1.8012   -4.0571    0.0000 N   0  0  0  0  0  0  0  0  0  0  0  0
   -1.5459   -5.5352    0.0000 N   0  0  0  0  0  0  0  0  0  0  0  0
   -0.0612   -5.7492    0.0000 C   0  0  0  0  0  0  0  0  0  0  0  0
    0.7732   -6.9957    0.0000 C   0  0  0  0  0  0  0  0  0  0  0  0
    2.2699   -6.8963    0.0000 C   0  0  0  0  0  0  0  0  0  0  0  0
    2.9322   -5.5504    0.0000 C   0  0  0  0  0  0  0  0  0  0  0  0
    2.0978   -4.3039    0.0000 C   0  0  0  0  0  0  0  0  0  0  0  0
    0.6011   -4.4033    0.0000 C   0  0  0  0  0  0  0  0  0  0  0  0
   -1.2251    0.5394    0.0000 N   0  0  0  0  0  0  0  0  0  0  0  0
   -2.4039    1.4671    0.0000 C   0  0  0  0  0  0  0  0  0  0  0  0
   -3.7966    0.9100    0.0000 C   0  0  0  0  0  0  0  0  0  0  0  0
   -4.0106   -0.5746    0.0000 O   0  0  0  0  0  0  0  0  0  0  0  0
   -4.9754    1.8377    0.0000 N   0  0  0  0  0  0  0  0  0  0  0  0
   -6.3681    1.2806    0.0000 C   0  0  0  0  0  0  0  0  0  0  0  0
   -7.2958    0.1019    0.0000 C   0  0  0  0  0  0  0  0  0  0  0  0
   -7.8528    1.4946    0.0000 C   0  0  0  0  0  0  0  0  0  0  0  0
   -2.1899    2.9517    0.0000 C   0  0  0  0  0  0  0  0  0  0  0  0
   -3.2653    3.9975    0.0000 C   0  0  0  0  0  0  0  0  0  0  0  0
   -2.6030    5.3434    0.0000 C   0  0  0  0  0  0  0  0  0  0  0  0
   -1.1183    5.1294    0.0000 S   0  0  0  0  0  0  0  0  0  0  0  0
   -0.8630    3.6513    0.0000 C   0  0  0  0  0  0  0  0  0  0  0  0
    0.1676    1.0964    0.0000 C   0  0  0  0  0  0  0  0  0  0  0  0
    1.3464    0.1688    0.0000 C   0  0  0  0  0  0  0  0  0  0  0  0
    2.7391    0.7258    0.0000 C   0  0  0  0  0  0  0  0  0  0  0  0
    2.9531    2.2105    0.0000 C   0  0  0  0  0  0  0  0  0  0  0  0
    4.3458    2.7675    0.0000 N   0  0  0  0  0  0  0  0  0  0  0  0
    5.5246    1.8399    0.0000 C   0  0  0  0  0  0  0  0  0  0  0  0
    5.3106    0.3552    0.0000 O   0  0  0  0  0  0  0  0  0  0  0  0
    6.9173    2.3969    0.0000 C   0  0  0  0  0  0  0  0  0  0  0  0
    7.8450    3.5757    0.0000 C   0  0  0  0  0  0  0  0  0  0  0  0
    8.4020    2.1830    0.0000 C   0  0  0  0  0  0  0  0  0  0  0  0
    1.7743    3.1381    0.0000 C   0  0  0  0  0  0  0  0  0  0  0  0
    0.3816    2.5811    0.0000 C   0  0  0  0  0  0  0  0  0  0  0  0
  1  2  2  0
  2  3  1  0
  2 13  1  0
  3  4  1  0
  4  5  1  0
  4 12  1  0
  5  6  2  0
  6  7  1  0
  7  8  1  0
  7 12  2  0
  8  9  2  0
  9 10  1  0
 10 11  2  0
 11 12  1  0
 13 14  1  0
 13 26  1  0
 14 15  1  0
 14 21  1  0
 15 16  2  0
 15 17  1  0
 17 18  1  0
 18 19  1  0
 18 20  1  0
 19 20  1  0
 21 22  1  0
 21 25  2  0
 22 23  2  0
 23 24  1  0
 24 25  1  0
 26 27  2  0
 26 37  1  0
 27 28  1  0
 28 29  2  0
 29 30  1  0
 29 36  1  0
 30 31  1  0
 31 32  2  0
 31 33  1  0
 33 34  1  0
 33 35  1  0
 34 35  1  0
 36 37  2  0
M  END
>  <s_m_entry_id>  (249) 
508

>  <s_m_entry_name>  (249) 
3C-like_protease_GHDDI_ligprep.127

>  <s_m_Source_Path>  (249) 
/home/jgilaber/drug_learning/drug_learning/datasets/SAR1/GHDDI

>  <s_m_Source_File>  (249) 
3C-like_protease_GHDDI_ligprep.sdf

>  <i_m_Source_File_Index>  (249) 
127

>  <s_m_subgroup_title>  (249) 
3C-like_protease_GHDDI_ligprep

>  <s_m_subgroupid>  (249) 
3C-like_protease_GHDDI_ligprep

>  <b_m_subgroup_collapsed>  (249) 
0

$$$$
13702
     RDKit          2D

 44 48  0  0  1  0  0  0  0  0999 V2000
    8.0035    4.4612    0.0000 C   0  0  0  0  0  0  0  0  0  0  0  0
    6.5427    4.8020    0.0000 C   0  0  0  0  0  0  0  0  0  0  0  0
    6.1075    6.2375    0.0000 C   0  0  0  0  0  0  0  0  0  0  0  0
    5.5172    3.7074    0.0000 C   0  0  0  0  0  0  0  0  0  0  0  0
    5.9524    2.2719    0.0000 O   0  0  0  0  0  0  0  0  0  0  0  0
    4.0564    4.0482    0.0000 N   0  0  0  0  0  0  0  0  0  0  0  0
    3.0309    2.9535    0.0000 C   0  0  0  0  0  0  0  0  0  0  0  0
    3.4661    1.5180    0.0000 C   0  0  0  0  0  0  0  0  0  0  0  0
    2.4406    0.4234    0.0000 C   0  0  0  0  0  0  0  0  0  0  0  0
    0.9798    0.7642    0.0000 C   0  0  0  0  0  0  0  0  0  0  0  0
    0.5446    2.1997    0.0000 C   0  0  0  0  0  0  0  0  0  0  0  0
    1.5701    3.2943    0.0000 C   0  0  0  0  0  0  0  0  0  0  0  0
   -0.0457   -0.3305    0.0000 N   0  0  0  0  0  0  0  0  0  0  0  0
   -1.5065    0.0103    0.0000 C   0  0  0  0  0  0  0  0  0  0  0  0
   -2.5320   -1.0843    0.0000 C   0  0  0  0  0  0  0  0  0  0  0  0
   -2.0968   -2.5198    0.0000 O   0  0  0  0  0  0  0  0  0  0  0  0
   -3.9928   -0.7435    0.0000 N   0  0  0  0  0  0  0  0  0  0  0  0
   -5.0183   -1.8382    0.0000 C   0  0  0  0  0  0  0  0  0  0  0  0
   -6.4791   -1.4974    0.0000 C   0  0  0  0  0  0  0  0  0  0  0  0
   -6.9143   -0.0619    0.0000 C   0  0  0  0  0  0  0  0  0  0  0  0
   -8.3751    0.2789    0.0000 C   0  0  0  0  0  0  0  0  0  0  0  0
   -9.4006   -0.8157    0.0000 C   0  0  0  0  0  0  0  0  0  0  0  0
   -8.9654   -2.2512    0.0000 C   0  0  0  0  0  0  0  0  0  0  0  0
   -7.5046   -2.5920    0.0000 C   0  0  0  0  0  0  0  0  0  0  0  0
   -1.9417    1.4458    0.0000 C   0  0  0  0  0  0  0  0  0  0  0  0
   -0.9162    2.5405    0.0000 C   0  0  0  0  0  0  0  0  0  0  0  0
   -1.3514    3.9759    0.0000 C   0  0  0  0  0  0  0  0  0  0  0  0
   -2.8122    4.3167    0.0000 C   0  0  0  0  0  0  0  0  0  0  0  0
   -3.2474    5.7522    0.0000 Cl  0  0  0  0  0  0  0  0  0  0  0  0
   -3.8377    3.2221    0.0000 C   0  0  0  0  0  0  0  0  0  0  0  0
   -5.2985    3.5629    0.0000 F   0  0  0  0  0  0  0  0  0  0  0  0
   -3.4025    1.7866    0.0000 C   0  0  0  0  0  0  0  0  0  0  0  0
    0.3895   -1.7659    0.0000 C   0  0  0  0  0  0  0  0  0  0  0  0
   -0.6360   -2.8606    0.0000 O   0  0  0  0  0  0  0  0  0  0  0  0
    1.8503   -2.1068    0.0000 C   0  0  0  0  0  0  0  0  0  0  0  0
    2.2855   -3.5422    0.0000 N   0  0  0  0  0  0  0  0  0  0  0  0
    1.3800   -4.7381    0.0000 N   0  0  0  0  0  0  0  0  0  0  0  0
    2.2376   -5.9688    0.0000 N   0  0  0  0  0  0  0  0  0  0  0  0
    3.6730   -5.5336    0.0000 C   0  0  0  0  0  0  0  0  0  0  0  0
    4.9570   -6.3091    0.0000 C   0  0  0  0  0  0  0  0  0  0  0  0
    6.2706   -5.5849    0.0000 C   0  0  0  0  0  0  0  0  0  0  0  0
    6.3002   -4.0852    0.0000 C   0  0  0  0  0  0  0  0  0  0  0  0
    5.0163   -3.3097    0.0000 C   0  0  0  0  0  0  0  0  0  0  0  0
    3.7027   -4.0339    0.0000 C   0  0  0  0  0  0  0  0  0  0  0  0
  1  2  1  0
  2  3  1  0
  2  4  1  0
  4  5  2  0
  4  6  1  0
  6  7  1  0
  7  8  2  0
  7 12  1  0
  8  9  1  0
  9 10  2  0
 10 11  1  0
 10 13  1  0
 11 12  2  0
 13 14  1  0
 13 33  1  0
 14 15  1  0
 14 25  1  0
 15 16  2  0
 15 17  1  0
 17 18  1  0
 18 19  1  0
 19 20  2  0
 19 24  1  0
 20 21  1  0
 21 22  2  0
 22 23  1  0
 23 24  2  0
 25 26  2  0
 25 32  1  0
 26 27  1  0
 27 28  2  0
 28 29  1  0
 28 30  1  0
 30 31  1  0
 30 32  2  0
 33 34  2  0
 33 35  1  0
 35 36  1  0
 36 37  1  0
 36 44  1  0
 37 38  2  0
 38 39  1  0
 39 40  1  0
 39 44  2  0
 40 41  2  0
 41 42  1  0
 42 43  2  0
 43 44  1  0
M  END
>  <s_m_entry_id>  (250) 
510

>  <s_m_entry_name>  (250) 
3C-like_protease_GHDDI_ligprep.129

>  <s_m_Source_Path>  (250) 
/home/jgilaber/drug_learning/drug_learning/datasets/SAR1/GHDDI

>  <s_m_Source_File>  (250) 
3C-like_protease_GHDDI_ligprep.sdf

>  <i_m_Source_File_Index>  (250) 
129

>  <s_m_subgroup_title>  (250) 
3C-like_protease_GHDDI_ligprep

>  <s_m_subgroupid>  (250) 
3C-like_protease_GHDDI_ligprep

>  <b_m_subgroup_collapsed>  (250) 
0

$$$$
13705
     RDKit          2D

 38 42  0  0  1  0  0  0  0  0999 V2000
    7.5569    2.1028    0.0000 C   0  0  0  0  0  0  0  0  0  0  0  0
    6.3559    3.0015    0.0000 C   0  0  0  0  0  0  0  0  0  0  0  0
    5.1550    3.9002    0.0000 C   0  0  0  0  0  0  0  0  0  0  0  0
    7.2546    4.2025    0.0000 C   0  0  0  0  0  0  0  0  0  0  0  0
    5.4572    1.8006    0.0000 C   0  0  0  0  0  0  0  0  0  0  0  0
    3.9678    1.9784    0.0000 N   0  0  0  0  0  0  0  0  0  0  0  0
    3.0691    0.7774    0.0000 C   0  0  0  0  0  0  0  0  0  0  0  0
    3.6598   -0.6014    0.0000 O   0  0  0  0  0  0  0  0  0  0  0  0
    1.5797    0.9552    0.0000 C   0  0  0  0  0  0  0  0  0  0  0  0
    0.6810   -0.2457    0.0000 N   0  0  0  0  0  0  0  0  0  0  0  0
    1.2717   -1.6245    0.0000 C   0  0  0  0  0  0  0  0  0  0  0  0
    2.7611   -1.8023    0.0000 O   0  0  0  0  0  0  0  0  0  0  0  0
    0.3730   -2.8255    0.0000 N   0  0  0  0  0  0  0  0  0  0  0  0
   -1.1269   -2.8043    0.0000 N   0  0  0  0  0  0  0  0  0  0  0  0
   -1.6105   -4.2242    0.0000 N   0  0  0  0  0  0  0  0  0  0  0  0
   -0.4095   -5.1230    0.0000 C   0  0  0  0  0  0  0  0  0  0  0  0
   -0.2738   -6.6168    0.0000 C   0  0  0  0  0  0  0  0  0  0  0  0
    1.0878   -7.2462    0.0000 C   0  0  0  0  0  0  0  0  0  0  0  0
    2.3137   -6.3817    0.0000 C   0  0  0  0  0  0  0  0  0  0  0  0
    2.1779   -4.8878    0.0000 C   0  0  0  0  0  0  0  0  0  0  0  0
    0.8163   -4.2585    0.0000 C   0  0  0  0  0  0  0  0  0  0  0  0
   -0.8084   -0.0679    0.0000 C   0  0  0  0  0  0  0  0  0  0  0  0
   -1.3992    1.3109    0.0000 C   0  0  0  0  0  0  0  0  0  0  0  0
   -2.8886    1.4887    0.0000 C   0  0  0  0  0  0  0  0  0  0  0  0
   -3.7873    0.2877    0.0000 C   0  0  0  0  0  0  0  0  0  0  0  0
   -5.2767    0.4655    0.0000 N   0  0  0  0  0  0  0  0  0  0  0  0
   -5.8674    1.8443    0.0000 C   0  0  0  0  0  0  0  0  0  0  0  0
   -4.9687    3.0453    0.0000 O   0  0  0  0  0  0  0  0  0  0  0  0
   -7.3569    2.0221    0.0000 C   0  0  0  0  0  0  0  0  0  0  0  0
   -8.7356    1.4314    0.0000 C   0  0  0  0  0  0  0  0  0  0  0  0
   -8.5578    2.9208    0.0000 C   0  0  0  0  0  0  0  0  0  0  0  0
   -3.1966   -1.0911    0.0000 C   0  0  0  0  0  0  0  0  0  0  0  0
   -1.7072   -1.2689    0.0000 C   0  0  0  0  0  0  0  0  0  0  0  0
    0.9890    2.3340    0.0000 C   0  0  0  0  0  0  0  0  0  0  0  0
   -0.4737    2.6665    0.0000 C   0  0  0  0  0  0  0  0  0  0  0  0
   -0.6095    4.1604    0.0000 C   0  0  0  0  0  0  0  0  0  0  0  0
    0.7693    4.7511    0.0000 S   0  0  0  0  0  0  0  0  0  0  0  0
    1.7572    3.6223    0.0000 C   0  0  0  0  0  0  0  0  0  0  0  0
  1  2  1  0
  2  3  1  0
  2  4  1  0
  2  5  1  0
  5  6  1  0
  6  7  1  0
  7  8  2  0
  7  9  1  0
  9 10  1  0
  9 34  1  0
 10 11  1  0
 10 22  1  0
 11 12  2  0
 11 13  1  0
 13 14  1  0
 13 21  1  0
 14 15  2  0
 15 16  1  0
 16 17  1  0
 16 21  2  0
 17 18  2  0
 18 19  1  0
 19 20  2  0
 20 21  1  0
 22 23  2  0
 22 33  1  0
 23 24  1  0
 24 25  2  0
 25 26  1  0
 25 32  1  0
 26 27  1  0
 27 28  2  0
 27 29  1  0
 29 30  1  0
 29 31  1  0
 30 31  1  0
 32 33  2  0
 34 35  1  0
 34 38  2  0
 35 36  2  0
 36 37  1  0
 37 38  1  0
M  END
>  <s_m_entry_id>  (251) 
516

>  <s_m_entry_name>  (251) 
3C-like_protease_GHDDI_ligprep.135

>  <s_m_Source_Path>  (251) 
/home/jgilaber/drug_learning/drug_learning/datasets/SAR1/GHDDI

>  <s_m_Source_File>  (251) 
3C-like_protease_GHDDI_ligprep.sdf

>  <i_m_Source_File_Index>  (251) 
135

>  <s_m_subgroup_title>  (251) 
3C-like_protease_GHDDI_ligprep

>  <s_m_subgroupid>  (251) 
3C-like_protease_GHDDI_ligprep

>  <b_m_subgroup_collapsed>  (251) 
0

$$$$
13707
     RDKit          2D

 42 45  0  0  1  0  0  0  0  0999 V2000
    6.2156   -3.1371    0.0000 C   0  0  0  0  0  0  0  0  0  0  0  0
    5.4361   -1.8556    0.0000 O   0  0  0  0  0  0  0  0  0  0  0  0
    6.1562   -0.5397    0.0000 C   0  0  0  0  0  0  0  0  0  0  0  0
    7.6558   -0.5055    0.0000 C   0  0  0  0  0  0  0  0  0  0  0  0
    8.3759    0.8104    0.0000 C   0  0  0  0  0  0  0  0  0  0  0  0
    7.5964    2.0919    0.0000 C   0  0  0  0  0  0  0  0  0  0  0  0
    6.0968    2.0577    0.0000 C   0  0  0  0  0  0  0  0  0  0  0  0
    5.0679    3.1491    0.0000 N   0  0  0  0  0  0  0  0  0  0  0  0
    3.7119    2.5079    0.0000 C   0  0  0  0  0  0  0  0  0  0  0  0
    3.9027    1.0201    0.0000 C   0  0  0  0  0  0  0  0  0  0  0  0
    5.3767    0.7418    0.0000 C   0  0  0  0  0  0  0  0  0  0  0  0
    2.3961    3.2280    0.0000 C   0  0  0  0  0  0  0  0  0  0  0  0
    2.3618    4.7276    0.0000 O   0  0  0  0  0  0  0  0  0  0  0  0
    1.1145    2.4485    0.0000 N   0  0  0  0  0  0  0  0  0  0  0  0
   -0.2013    3.1686    0.0000 C   0  0  0  0  0  0  0  0  0  0  0  0
    1.1488    0.9489    0.0000 C   0  0  0  0  0  0  0  0  0  0  0  0
    2.4646    0.2288    0.0000 C   0  0  0  0  0  0  0  0  0  0  0  0
    2.4989   -1.2708    0.0000 C   0  0  0  0  0  0  0  0  0  0  0  0
    3.8147   -1.9909    0.0000 C   0  0  0  0  0  0  0  0  0  0  0  0
    1.2173   -2.0503    0.0000 C   0  0  0  0  0  0  0  0  0  0  0  0
   -0.1328    0.1694    0.0000 C   0  0  0  0  0  0  0  0  0  0  0  0
   -1.4486    0.8895    0.0000 O   0  0  0  0  0  0  0  0  0  0  0  0
   -0.0985   -1.3302    0.0000 N   0  0  0  0  0  0  0  0  0  0  0  0
   -1.3801   -2.1097    0.0000 C   0  0  0  0  0  0  0  0  0  0  0  0
   -1.3458   -3.6093    0.0000 C   0  0  0  0  0  0  0  0  0  0  0  0
   -2.6273   -4.3888    0.0000 C   0  0  0  0  0  0  0  0  0  0  0  0
   -4.0112   -3.8101    0.0000 C   0  0  0  0  0  0  0  0  0  0  0  0
   -4.9892   -4.9475    0.0000 C   0  0  0  0  0  0  0  0  0  0  0  0
   -4.2097   -6.2291    0.0000 N   0  0  0  0  0  0  0  0  0  0  0  0
   -2.7500   -5.8837    0.0000 C   0  0  0  0  0  0  0  0  0  0  0  0
   -1.6127   -6.8617    0.0000 O   0  0  0  0  0  0  0  0  0  0  0  0
   -2.6959   -1.3895    0.0000 C   0  0  0  0  0  0  0  0  0  0  0  0
   -3.9775   -2.1690    0.0000 O   0  0  0  0  0  0  0  0  0  0  0  0
   -2.7302    0.1101    0.0000 C   0  0  0  0  0  0  0  0  0  0  0  0
   -4.0460    0.8302    0.0000 O   0  0  0  0  0  0  0  0  0  0  0  0
   -4.0803    2.3298    0.0000 C   0  0  0  0  0  0  0  0  0  0  0  0
   -5.3961    3.0499    0.0000 C   0  0  0  0  0  0  0  0  0  0  0  0
   -6.6777    2.2704    0.0000 C   0  0  0  0  0  0  0  0  0  0  0  0
   -7.9935    2.9905    0.0000 C   0  0  0  0  0  0  0  0  0  0  0  0
   -8.0278    4.4901    0.0000 C   0  0  0  0  0  0  0  0  0  0  0  0
   -6.7462    5.2696    0.0000 C   0  0  0  0  0  0  0  0  0  0  0  0
   -5.4304    4.5495    0.0000 C   0  0  0  0  0  0  0  0  0  0  0  0
  1  2  1  0
  2  3  1  0
  3  4  2  0
  3 11  1  0
  4  5  1  0
  5  6  2  0
  6  7  1  0
  7  8  1  0
  7 11  2  0
  8  9  1  0
  9 10  2  0
  9 12  1  0
 10 11  1  0
 12 13  2  0
 12 14  1  0
 14 15  1  0
 14 16  1  0
 16 17  1  0
 16 21  1  0
 17 18  1  0
 18 19  1  0
 18 20  1  0
 21 22  2  0
 21 23  1  0
 23 24  1  0
 24 25  1  0
 24 32  1  0
 25 26  1  0
 26 27  1  0
 26 30  1  0
 27 28  1  0
 28 29  1  0
 29 30  1  0
 30 31  2  0
 32 33  2  0
 32 34  1  0
 34 35  1  0
 35 36  1  0
 36 37  1  0
 37 38  2  0
 37 42  1  0
 38 39  1  0
 39 40  2  0
 40 41  1  0
 41 42  2  0
M  END
>  <s_m_entry_id>  (252) 
522

>  <s_m_entry_name>  (252) 
3C-like_protease_GHDDI_ligprep.141

>  <s_m_Source_Path>  (252) 
/home/jgilaber/drug_learning/drug_learning/datasets/SAR1/GHDDI

>  <s_m_Source_File>  (252) 
3C-like_protease_GHDDI_ligprep.sdf

>  <i_m_Source_File_Index>  (252) 
141

>  <s_m_subgroup_title>  (252) 
3C-like_protease_GHDDI_ligprep

>  <s_m_subgroupid>  (252) 
3C-like_protease_GHDDI_ligprep

>  <b_m_subgroup_collapsed>  (252) 
0

$$$$
13708
     RDKit          2D

 21 22  0  0  1  0  0  0  0  0999 V2000
   -0.2262   -2.3222    0.0000 C   0  0  0  0  0  0  0  0  0  0  0  0
    0.2424   -0.8973    0.0000 N   0  0  0  0  0  0  0  0  0  0  0  0
   -0.7574    0.2210    0.0000 C   0  0  0  0  0  0  0  0  0  0  0  0
   -2.2257   -0.0857    0.0000 C   0  0  0  0  0  0  0  0  0  0  0  0
   -2.6942   -1.5107    0.0000 O   0  0  0  0  0  0  0  0  0  0  0  0
   -3.2254    1.0325    0.0000 N   0  0  0  0  0  0  0  0  0  0  0  0
   -4.6938    0.7259    0.0000 C   0  0  0  0  0  0  0  0  0  0  0  0
   -5.3087   -0.6423    0.0000 C   0  0  0  0  0  0  0  0  0  0  0  0
   -6.7999   -0.4802    0.0000 C   0  0  0  0  0  0  0  0  0  0  0  0
   -7.1066    0.9881    0.0000 C   0  0  0  0  0  0  0  0  0  0  0  0
   -5.8049    1.7335    0.0000 C   0  0  0  0  0  0  0  0  0  0  0  0
    1.7107   -0.5906    0.0000 S   0  0  0  0  0  0  0  0  0  0  0  0
    1.4040    0.8777    0.0000 O   0  0  0  0  0  0  0  0  0  0  0  0
    2.0174   -2.0589    0.0000 O   0  0  0  0  0  0  0  0  0  0  0  0
    3.1790   -0.2839    0.0000 C   0  0  0  0  0  0  0  0  0  0  0  0
    4.1788   -1.4022    0.0000 C   0  0  0  0  0  0  0  0  0  0  0  0
    5.6471   -1.0955    0.0000 C   0  0  0  0  0  0  0  0  0  0  0  0
    6.1156    0.3295    0.0000 C   0  0  0  0  0  0  0  0  0  0  0  0
    5.1159    1.4477    0.0000 C   0  0  0  0  0  0  0  0  0  0  0  0
    5.5844    2.8726    0.0000 Cl  0  0  0  0  0  0  0  0  0  0  0  0
    3.6476    1.1410    0.0000 C   0  0  0  0  0  0  0  0  0  0  0  0
  1  2  1  0
  2  3  1  0
  2 12  1  0
  3  4  1  0
  4  5  2  0
  4  6  1  0
  6  7  1  0
  7  8  1  0
  7 11  1  0
  8  9  1  0
  9 10  1  0
 10 11  1  0
 12 13  2  0
 12 14  2  0
 12 15  1  0
 15 16  2  0
 15 21  1  0
 16 17  1  0
 17 18  2  0
 18 19  1  0
 19 20  1  0
 19 21  2  0
M  END
>  <s_m_entry_id>  (253) 
523

>  <s_m_entry_name>  (253) 
3C-like_protease_GHDDI_ligprep.142

>  <s_m_Source_Path>  (253) 
/home/jgilaber/drug_learning/drug_learning/datasets/SAR1/GHDDI

>  <s_m_Source_File>  (253) 
3C-like_protease_GHDDI_ligprep.sdf

>  <i_m_Source_File_Index>  (253) 
142

>  <s_m_subgroup_title>  (253) 
3C-like_protease_GHDDI_ligprep

>  <s_m_subgroupid>  (253) 
3C-like_protease_GHDDI_ligprep

>  <b_m_subgroup_collapsed>  (253) 
0

$$$$
13709
     RDKit          2D

 22 25  0  0  1  0  0  0  0  0999 V2000
    6.5632   -1.5405    0.0000 I   0  0  0  0  0  0  0  0  0  0  0  0
    5.0981   -1.2187    0.0000 C   0  0  0  0  0  0  0  0  0  0  0  0
    4.0868   -2.3265    0.0000 C   0  0  0  0  0  0  0  0  0  0  0  0
    2.6218   -2.0046    0.0000 C   0  0  0  0  0  0  0  0  0  0  0  0
    2.1680   -0.5749    0.0000 C   0  0  0  0  0  0  0  0  0  0  0  0
    0.8018    0.0445    0.0000 N   0  0  0  0  0  0  0  0  0  0  0  0
   -0.5023   -0.6966    0.0000 C   0  0  0  0  0  0  0  0  0  0  0  0
   -1.7962    0.0622    0.0000 C   0  0  0  0  0  0  0  0  0  0  0  0
   -1.9428    1.5550    0.0000 C   0  0  0  0  0  0  0  0  0  0  0  0
   -3.4079    1.8769    0.0000 S   0  0  0  0  0  0  0  0  0  0  0  0
   -4.1667    0.5830    0.0000 C   0  0  0  0  0  0  0  0  0  0  0  0
   -5.6360    0.2811    0.0000 C   0  0  0  0  0  0  0  0  0  0  0  0
   -6.1092   -1.1423    0.0000 C   0  0  0  0  0  0  0  0  0  0  0  0
   -5.1132   -2.2638    0.0000 C   0  0  0  0  0  0  0  0  0  0  0  0
   -3.6439   -1.9619    0.0000 C   0  0  0  0  0  0  0  0  0  0  0  0
   -3.1706   -0.5386    0.0000 C   0  0  0  0  0  0  0  0  0  0  0  0
    0.9688    1.5352    0.0000 C   0  0  0  0  0  0  0  0  0  0  0  0
   -0.1390    2.5464    0.0000 O   0  0  0  0  0  0  0  0  0  0  0  0
    2.4381    1.8370    0.0000 C   0  0  0  0  0  0  0  0  0  0  0  0
    3.0575    3.2032    0.0000 O   0  0  0  0  0  0  0  0  0  0  0  0
    3.1792    0.5329    0.0000 C   0  0  0  0  0  0  0  0  0  0  0  0
    4.6443    0.2111    0.0000 C   0  0  0  0  0  0  0  0  0  0  0  0
  1  2  1  0
  2  3  2  0
  2 22  1  0
  3  4  1  0
  4  5  2  0
  5  6  1  0
  5 21  1  0
  6  7  1  0
  6 17  1  0
  7  8  1  0
  8  9  2  0
  8 16  1  0
  9 10  1  0
 10 11  1  0
 11 12  1  0
 11 16  2  0
 12 13  2  0
 13 14  1  0
 14 15  2  0
 15 16  1  0
 17 18  2  0
 17 19  1  0
 19 20  2  0
 19 21  1  0
 21 22  2  0
M  END
>  <s_m_entry_id>  (254) 
524

>  <s_m_entry_name>  (254) 
3C-like_protease_GHDDI_ligprep.143

>  <s_m_Source_Path>  (254) 
/home/jgilaber/drug_learning/drug_learning/datasets/SAR1/GHDDI

>  <s_m_Source_File>  (254) 
3C-like_protease_GHDDI_ligprep.sdf

>  <i_m_Source_File_Index>  (254) 
143

>  <s_m_subgroup_title>  (254) 
3C-like_protease_GHDDI_ligprep

>  <s_m_subgroupid>  (254) 
3C-like_protease_GHDDI_ligprep

>  <b_m_subgroup_collapsed>  (254) 
0

$$$$
13710
     RDKit          2D

 22 25  0  0  1  0  0  0  0  0999 V2000
   -1.7623   -3.0841    0.0000 Br  0  0  0  0  0  0  0  0  0  0  0  0
   -2.7998   -2.0008    0.0000 C   0  0  0  0  0  0  0  0  0  0  0  0
   -4.2567   -2.3576    0.0000 C   0  0  0  0  0  0  0  0  0  0  0  0
   -5.2942   -1.2743    0.0000 C   0  0  0  0  0  0  0  0  0  0  0  0
   -4.8748    0.1659    0.0000 C   0  0  0  0  0  0  0  0  0  0  0  0
   -3.4179    0.5227    0.0000 C   0  0  0  0  0  0  0  0  0  0  0  0
   -2.7081    1.8442    0.0000 C   0  0  0  0  0  0  0  0  0  0  0  0
   -3.3601    3.1951    0.0000 O   0  0  0  0  0  0  0  0  0  0  0  0
   -1.2320    1.5776    0.0000 C   0  0  0  0  0  0  0  0  0  0  0  0
   -0.1487    2.6151    0.0000 O   0  0  0  0  0  0  0  0  0  0  0  0
   -1.0294    0.0913    0.0000 N   0  0  0  0  0  0  0  0  0  0  0  0
    0.2920   -0.6184    0.0000 C   0  0  0  0  0  0  0  0  0  0  0  0
    1.5674    0.1712    0.0000 C   0  0  0  0  0  0  0  0  0  0  0  0
    1.6783    1.6671    0.0000 C   0  0  0  0  0  0  0  0  0  0  0  0
    3.1352    2.0239    0.0000 S   0  0  0  0  0  0  0  0  0  0  0  0
    3.9248    0.7486    0.0000 C   0  0  0  0  0  0  0  0  0  0  0  0
    5.4009    0.4820    0.0000 C   0  0  0  0  0  0  0  0  0  0  0  0
    5.9081   -0.9297    0.0000 C   0  0  0  0  0  0  0  0  0  0  0  0
    4.9391   -2.0747    0.0000 C   0  0  0  0  0  0  0  0  0  0  0  0
    3.4630   -1.8081    0.0000 C   0  0  0  0  0  0  0  0  0  0  0  0
    2.9558   -0.3965    0.0000 C   0  0  0  0  0  0  0  0  0  0  0  0
   -2.3804   -0.5606    0.0000 C   0  0  0  0  0  0  0  0  0  0  0  0
  1  2  1  0
  2  3  2  0
  2 22  1  0
  3  4  1  0
  4  5  2  0
  5  6  1  0
  6  7  1  0
  6 22  2  0
  7  8  2  0
  7  9  1  0
  9 10  2  0
  9 11  1  0
 11 12  1  0
 11 22  1  0
 12 13  1  0
 13 14  2  0
 13 21  1  0
 14 15  1  0
 15 16  1  0
 16 17  1  0
 16 21  2  0
 17 18  2  0
 18 19  1  0
 19 20  2  0
 20 21  1  0
M  END
>  <s_m_entry_id>  (255) 
525

>  <s_m_entry_name>  (255) 
3C-like_protease_GHDDI_ligprep.144

>  <s_m_Source_Path>  (255) 
/home/jgilaber/drug_learning/drug_learning/datasets/SAR1/GHDDI

>  <s_m_Source_File>  (255) 
3C-like_protease_GHDDI_ligprep.sdf

>  <i_m_Source_File_Index>  (255) 
144

>  <s_m_subgroup_title>  (255) 
3C-like_protease_GHDDI_ligprep

>  <s_m_subgroupid>  (255) 
3C-like_protease_GHDDI_ligprep

>  <b_m_subgroup_collapsed>  (255) 
0

$$$$
13711
     RDKit          2D

 31 35  0  0  1  0  0  0  0  0999 V2000
    2.5074   -3.2676    0.0000 O   0  0  0  0  0  0  0  0  0  0  0  0
    1.6036   -2.0704    0.0000 C   0  0  0  0  0  0  0  0  0  0  0  0
    2.1886   -0.6891    0.0000 C   0  0  0  0  0  0  0  0  0  0  0  0
    3.6772   -0.5051    0.0000 N   0  0  0  0  0  0  0  0  0  0  0  0
    4.7012   -1.6012    0.0000 N   0  0  0  0  0  0  0  0  0  0  0  0
    6.0601   -0.9662    0.0000 N   0  0  0  0  0  0  0  0  0  0  0  0
    5.8760    0.5225    0.0000 C   0  0  0  0  0  0  0  0  0  0  0  0
    6.8592    1.6554    0.0000 C   0  0  0  0  0  0  0  0  0  0  0  0
    6.3696    3.0733    0.0000 C   0  0  0  0  0  0  0  0  0  0  0  0
    4.8969    3.3582    0.0000 C   0  0  0  0  0  0  0  0  0  0  0  0
    3.9138    2.2253    0.0000 C   0  0  0  0  0  0  0  0  0  0  0  0
    4.4033    0.8075    0.0000 C   0  0  0  0  0  0  0  0  0  0  0  0
    0.1150   -2.2544    0.0000 N   0  0  0  0  0  0  0  0  0  0  0  0
   -0.4700   -3.6357    0.0000 C   0  0  0  0  0  0  0  0  0  0  0  0
   -1.9586   -3.8197    0.0000 C   0  0  0  0  0  0  0  0  0  0  0  0
   -2.6847   -5.1323    0.0000 C   0  0  0  0  0  0  0  0  0  0  0  0
   -4.1574   -4.8473    0.0000 C   0  0  0  0  0  0  0  0  0  0  0  0
   -4.3415   -3.3586    0.0000 S   0  0  0  0  0  0  0  0  0  0  0  0
   -2.9825   -2.7236    0.0000 C   0  0  0  0  0  0  0  0  0  0  0  0
   -0.7888   -1.0572    0.0000 C   0  0  0  0  0  0  0  0  0  0  0  0
   -0.2038    0.3240    0.0000 C   0  0  0  0  0  0  0  0  0  0  0  0
   -1.1076    1.5212    0.0000 C   0  0  0  0  0  0  0  0  0  0  0  0
   -2.5962    1.3371    0.0000 C   0  0  0  0  0  0  0  0  0  0  0  0
   -3.1812   -0.0441    0.0000 C   0  0  0  0  0  0  0  0  0  0  0  0
   -2.2774   -1.2413    0.0000 C   0  0  0  0  0  0  0  0  0  0  0  0
   -3.5000    2.5343    0.0000 C   0  0  0  0  0  0  0  0  0  0  0  0
   -2.9150    3.9156    0.0000 C   0  0  0  0  0  0  0  0  0  0  0  0
   -3.8188    5.1128    0.0000 C   0  0  0  0  0  0  0  0  0  0  0  0
   -5.3074    4.9287    0.0000 C   0  0  0  0  0  0  0  0  0  0  0  0
   -5.8924    3.5475    0.0000 N   0  0  0  0  0  0  0  0  0  0  0  0
   -4.9886    2.3503    0.0000 C   0  0  0  0  0  0  0  0  0  0  0  0
  1  2  2  0
  2  3  1  0
  2 13  1  0
  3  4  1  0
  4  5  1  0
  4 12  1  0
  5  6  2  0
  6  7  1  0
  7  8  1  0
  7 12  2  0
  8  9  2  0
  9 10  1  0
 10 11  2  0
 11 12  1  0
 13 14  1  0
 13 20  1  0
 14 15  1  0
 15 16  1  0
 15 19  2  0
 16 17  2  0
 17 18  1  0
 18 19  1  0
 20 21  2  0
 20 25  1  0
 21 22  1  0
 22 23  2  0
 23 24  1  0
 23 26  1  0
 24 25  2  0
 26 27  2  0
 26 31  1  0
 27 28  1  0
 28 29  2  0
 29 30  1  0
 30 31  2  0
M  END
>  <s_m_entry_id>  (256) 
526

>  <s_m_entry_name>  (256) 
3C-like_protease_GHDDI_ligprep.145

>  <s_m_Source_Path>  (256) 
/home/jgilaber/drug_learning/drug_learning/datasets/SAR1/GHDDI

>  <s_m_Source_File>  (256) 
3C-like_protease_GHDDI_ligprep.sdf

>  <i_m_Source_File_Index>  (256) 
145

>  <s_m_subgroup_title>  (256) 
3C-like_protease_GHDDI_ligprep

>  <s_m_subgroupid>  (256) 
3C-like_protease_GHDDI_ligprep

>  <b_m_subgroup_collapsed>  (256) 
0

$$$$
13713
     RDKit          2D

 30 31  0  0  1  0  0  0  0  0999 V2000
    4.9493    3.5810    0.0000 C   0  0  0  0  0  0  0  0  0  0  0  0
    3.5162    4.0241    0.0000 O   0  0  0  0  0  0  0  0  0  0  0  0
    2.4160    3.0045    0.0000 C   0  0  0  0  0  0  0  0  0  0  0  0
    0.9829    3.4475    0.0000 C   0  0  0  0  0  0  0  0  0  0  0  0
    0.6500    4.9101    0.0000 O   0  0  0  0  0  0  0  0  0  0  0  0
   -0.1173    2.4279    0.0000 C   0  0  0  0  0  0  0  0  0  0  0  0
   -1.5504    2.8709    0.0000 C   0  0  0  0  0  0  0  0  0  0  0  0
   -2.6506    1.8514    0.0000 C   0  0  0  0  0  0  0  0  0  0  0  0
   -2.4724    0.3620    0.0000 C   0  0  0  0  0  0  0  0  0  0  0  0
   -3.8339   -0.2677    0.0000 C   0  0  0  0  0  0  0  0  0  0  0  0
   -4.8534    0.8325    0.0000 N   0  0  0  0  0  0  0  0  0  0  0  0
   -4.1221    2.1422    0.0000 C   0  0  0  0  0  0  0  0  0  0  0  0
   -4.7518    3.5036    0.0000 O   0  0  0  0  0  0  0  0  0  0  0  0
    0.2156    0.9653    0.0000 N   0  0  0  0  0  0  0  0  0  0  0  0
    1.6487    0.5223    0.0000 C   0  0  0  0  0  0  0  0  0  0  0  0
    2.7489    1.5419    0.0000 O   0  0  0  0  0  0  0  0  0  0  0  0
    1.9815   -0.9403    0.0000 C   0  0  0  0  0  0  0  0  0  0  0  0
    3.4146   -1.3833    0.0000 C   0  0  0  0  0  0  0  0  0  0  0  0
    3.7475   -2.8459    0.0000 C   0  0  0  0  0  0  0  0  0  0  0  0
    5.2101   -2.5130    0.0000 C   0  0  0  0  0  0  0  0  0  0  0  0
    2.2849   -3.1788    0.0000 C   0  0  0  0  0  0  0  0  0  0  0  0
    4.0804   -4.3085    0.0000 C   0  0  0  0  0  0  0  0  0  0  0  0
    0.8813   -1.9599    0.0000 N   0  0  0  0  0  0  0  0  0  0  0  0
   -0.5518   -1.5169    0.0000 C   0  0  0  0  0  0  0  0  0  0  0  0
   -0.8846   -0.0543    0.0000 O   0  0  0  0  0  0  0  0  0  0  0  0
   -1.6520   -2.5364    0.0000 C   0  0  0  0  0  0  0  0  0  0  0  0
   -3.1235   -2.2456    0.0000 C   0  0  0  0  0  0  0  0  0  0  0  0
   -3.8548   -3.5553    0.0000 C   0  0  0  0  0  0  0  0  0  0  0  0
   -2.8352   -4.6555    0.0000 C   0  0  0  0  0  0  0  0  0  0  0  0
   -1.4738   -4.0258    0.0000 O   0  0  0  0  0  0  0  0  0  0  0  0
  1  2  1  0
  2  3  1  0
  3  4  1  0
  4  5  2  0
  4  6  1  0
  6  7  1  0
  6 14  1  0
  7  8  1  0
  8  9  1  0
  8 12  1  0
  9 10  1  0
 10 11  1  0
 11 12  1  0
 12 13  2  0
 14 15  1  0
 15 16  2  0
 15 17  1  0
 17 18  1  0
 17 23  1  0
 18 19  1  0
 19 20  1  0
 19 21  1  0
 19 22  1  0
 23 24  1  0
 24 25  2  0
 24 26  1  0
 26 27  1  0
 26 30  1  0
 27 28  1  0
 28 29  1  0
 29 30  1  0
M  END
>  <s_m_entry_id>  (257) 
528

>  <s_m_entry_name>  (257) 
3C-like_protease_GHDDI_ligprep.147

>  <s_m_Source_Path>  (257) 
/home/jgilaber/drug_learning/drug_learning/datasets/SAR1/GHDDI

>  <s_m_Source_File>  (257) 
3C-like_protease_GHDDI_ligprep.sdf

>  <i_m_Source_File_Index>  (257) 
147

>  <s_m_subgroup_title>  (257) 
3C-like_protease_GHDDI_ligprep

>  <s_m_subgroupid>  (257) 
3C-like_protease_GHDDI_ligprep

>  <b_m_subgroup_collapsed>  (257) 
0

$$$$
13714
     RDKit          2D

 44 48  0  0  1  0  0  0  0  0999 V2000
   -2.2314    6.7924    0.0000 C   0  0  0  0  0  0  0  0  0  0  0  0
   -3.2666    5.7069    0.0000 O   0  0  0  0  0  0  0  0  0  0  0  0
   -2.8442    4.2676    0.0000 C   0  0  0  0  0  0  0  0  0  0  0  0
   -1.3865    3.9138    0.0000 C   0  0  0  0  0  0  0  0  0  0  0  0
   -0.9641    2.4745    0.0000 C   0  0  0  0  0  0  0  0  0  0  0  0
   -1.9993    1.3890    0.0000 C   0  0  0  0  0  0  0  0  0  0  0  0
   -3.4570    1.7429    0.0000 C   0  0  0  0  0  0  0  0  0  0  0  0
   -3.8794    3.1822    0.0000 C   0  0  0  0  0  0  0  0  0  0  0  0
   -1.5769   -0.0502    0.0000 C   0  0  0  0  0  0  0  0  0  0  0  0
   -0.1192   -0.4041    0.0000 N   0  0  0  0  0  0  0  0  0  0  0  0
    0.3032   -1.8434    0.0000 C   0  0  0  0  0  0  0  0  0  0  0  0
   -0.7321   -2.9288    0.0000 O   0  0  0  0  0  0  0  0  0  0  0  0
    1.7609   -2.1972    0.0000 C   0  0  0  0  0  0  0  0  0  0  0  0
    2.1833   -3.6365    0.0000 N   0  0  0  0  0  0  0  0  0  0  0  0
    1.2672   -4.8242    0.0000 N   0  0  0  0  0  0  0  0  0  0  0  0
    2.1137   -6.0625    0.0000 N   0  0  0  0  0  0  0  0  0  0  0  0
    3.5530   -5.6401    0.0000 C   0  0  0  0  0  0  0  0  0  0  0  0
    4.8300   -6.4270    0.0000 C   0  0  0  0  0  0  0  0  0  0  0  0
    6.1500   -5.7146    0.0000 C   0  0  0  0  0  0  0  0  0  0  0  0
    6.1930   -4.2152    0.0000 C   0  0  0  0  0  0  0  0  0  0  0  0
    4.9160   -3.4283    0.0000 C   0  0  0  0  0  0  0  0  0  0  0  0
    3.5960   -4.1407    0.0000 C   0  0  0  0  0  0  0  0  0  0  0  0
    0.9160    0.6814    0.0000 C   0  0  0  0  0  0  0  0  0  0  0  0
    2.3737    0.3276    0.0000 C   0  0  0  0  0  0  0  0  0  0  0  0
    3.4089    1.4131    0.0000 C   0  0  0  0  0  0  0  0  0  0  0  0
    2.9865    2.8524    0.0000 C   0  0  0  0  0  0  0  0  0  0  0  0
    4.0218    3.9378    0.0000 N   0  0  0  0  0  0  0  0  0  0  0  0
    5.4794    3.5840    0.0000 C   0  0  0  0  0  0  0  0  0  0  0  0
    5.9019    2.1447    0.0000 O   0  0  0  0  0  0  0  0  0  0  0  0
    6.5147    4.6695    0.0000 C   0  0  0  0  0  0  0  0  0  0  0  0
    7.9724    4.3157    0.0000 C   0  0  0  0  0  0  0  0  0  0  0  0
    6.0923    6.1088    0.0000 C   0  0  0  0  0  0  0  0  0  0  0  0
    1.5288    3.2062    0.0000 C   0  0  0  0  0  0  0  0  0  0  0  0
    0.4936    2.1207    0.0000 C   0  0  0  0  0  0  0  0  0  0  0  0
   -2.6122   -1.1357    0.0000 C   0  0  0  0  0  0  0  0  0  0  0  0
   -2.1897   -2.5750    0.0000 O   0  0  0  0  0  0  0  0  0  0  0  0
   -4.0698   -0.7819    0.0000 N   0  0  0  0  0  0  0  0  0  0  0  0
   -5.1051   -1.8674    0.0000 C   0  0  0  0  0  0  0  0  0  0  0  0
   -6.5628   -1.5136    0.0000 C   0  0  0  0  0  0  0  0  0  0  0  0
   -6.9852   -0.0743    0.0000 C   0  0  0  0  0  0  0  0  0  0  0  0
   -8.4429    0.2795    0.0000 C   0  0  0  0  0  0  0  0  0  0  0  0
   -9.4781   -0.8059    0.0000 C   0  0  0  0  0  0  0  0  0  0  0  0
   -9.0557   -2.2452    0.0000 C   0  0  0  0  0  0  0  0  0  0  0  0
   -7.5980   -2.5990    0.0000 C   0  0  0  0  0  0  0  0  0  0  0  0
  1  2  1  0
  2  3  1  0
  3  4  2  0
  3  8  1  0
  4  5  1  0
  5  6  2  0
  6  7  1  0
  6  9  1  0
  7  8  2  0
  9 10  1  0
  9 35  1  0
 10 11  1  0
 10 23  1  0
 11 12  2  0
 11 13  1  0
 13 14  1  0
 14 15  1  0
 14 22  1  0
 15 16  2  0
 16 17  1  0
 17 18  1  0
 17 22  2  0
 18 19  2  0
 19 20  1  0
 20 21  2  0
 21 22  1  0
 23 24  2  0
 23 34  1  0
 24 25  1  0
 25 26  2  0
 26 27  1  0
 26 33  1  0
 27 28  1  0
 28 29  2  0
 28 30  1  0
 30 31  1  0
 30 32  1  0
 33 34  2  0
 35 36  2  0
 35 37  1  0
 37 38  1  0
 38 39  1  0
 39 40  2  0
 39 44  1  0
 40 41  1  0
 41 42  2  0
 42 43  1  0
 43 44  2  0
M  END
>  <s_m_entry_id>  (258) 
530

>  <s_m_entry_name>  (258) 
3C-like_protease_GHDDI_ligprep.149

>  <s_m_Source_Path>  (258) 
/home/jgilaber/drug_learning/drug_learning/datasets/SAR1/GHDDI

>  <s_m_Source_File>  (258) 
3C-like_protease_GHDDI_ligprep.sdf

>  <i_m_Source_File_Index>  (258) 
149

>  <s_m_subgroup_title>  (258) 
3C-like_protease_GHDDI_ligprep

>  <s_m_subgroupid>  (258) 
3C-like_protease_GHDDI_ligprep

>  <b_m_subgroup_collapsed>  (258) 
0

$$$$
13717
     RDKit          2D

 41 46  0  0  1  0  0  0  0  0999 V2000
   -1.2596   -2.4107    0.0000 O   0  0  0  0  0  0  0  0  0  0  0  0
   -0.0979   -1.4618    0.0000 C   0  0  0  0  0  0  0  0  0  0  0  0
    1.3047   -1.9934    0.0000 C   0  0  0  0  0  0  0  0  0  0  0  0
    1.5457   -3.4739    0.0000 N   0  0  0  0  0  0  0  0  0  0  0  0
    0.4895   -4.5391    0.0000 N   0  0  0  0  0  0  0  0  0  0  0  0
    1.1762   -5.8727    0.0000 N   0  0  0  0  0  0  0  0  0  0  0  0
    2.6567   -5.6317    0.0000 C   0  0  0  0  0  0  0  0  0  0  0  0
    3.8264   -6.5707    0.0000 C   0  0  0  0  0  0  0  0  0  0  0  0
    5.2245   -6.0272    0.0000 C   0  0  0  0  0  0  0  0  0  0  0  0
    5.4529   -4.5447    0.0000 C   0  0  0  0  0  0  0  0  0  0  0  0
    4.2831   -3.6057    0.0000 C   0  0  0  0  0  0  0  0  0  0  0  0
    2.8851   -4.1492    0.0000 C   0  0  0  0  0  0  0  0  0  0  0  0
   -0.3389    0.0187    0.0000 N   0  0  0  0  0  0  0  0  0  0  0  0
   -1.7415    0.5503    0.0000 C   0  0  0  0  0  0  0  0  0  0  0  0
   -2.9032   -0.3986    0.0000 C   0  0  0  0  0  0  0  0  0  0  0  0
   -2.6623   -1.8791    0.0000 O   0  0  0  0  0  0  0  0  0  0  0  0
   -4.3058    0.1330    0.0000 N   0  0  0  0  0  0  0  0  0  0  0  0
   -5.4675   -0.8159    0.0000 C   0  0  0  0  0  0  0  0  0  0  0  0
   -6.8702   -0.2844    0.0000 C   0  0  0  0  0  0  0  0  0  0  0  0
   -7.1111    1.1962    0.0000 C   0  0  0  0  0  0  0  0  0  0  0  0
   -8.5138    1.7278    0.0000 C   0  0  0  0  0  0  0  0  0  0  0  0
   -9.6755    0.7788    0.0000 C   0  0  0  0  0  0  0  0  0  0  0  0
   -9.4345   -0.7017    0.0000 N   0  0  0  0  0  0  0  0  0  0  0  0
   -8.0319   -1.2333    0.0000 C   0  0  0  0  0  0  0  0  0  0  0  0
   -1.9825    2.0308    0.0000 C   0  0  0  0  0  0  0  0  0  0  0  0
   -3.3219    2.7061    0.0000 C   0  0  0  0  0  0  0  0  0  0  0  0
   -3.0935    4.1887    0.0000 C   0  0  0  0  0  0  0  0  0  0  0  0
   -1.6130    4.4296    0.0000 S   0  0  0  0  0  0  0  0  0  0  0  0
   -0.9263    3.0960    0.0000 C   0  0  0  0  0  0  0  0  0  0  0  0
    0.8228    0.9677    0.0000 C   0  0  0  0  0  0  0  0  0  0  0  0
    2.2255    0.4361    0.0000 C   0  0  0  0  0  0  0  0  0  0  0  0
    3.3872    1.3850    0.0000 C   0  0  0  0  0  0  0  0  0  0  0  0
    3.1462    2.8655    0.0000 C   0  0  0  0  0  0  0  0  0  0  0  0
    4.3079    3.8144    0.0000 N   0  0  0  0  0  0  0  0  0  0  0  0
    5.7106    3.2828    0.0000 C   0  0  0  0  0  0  0  0  0  0  0  0
    5.9515    1.8023    0.0000 O   0  0  0  0  0  0  0  0  0  0  0  0
    6.8723    4.2318    0.0000 C   0  0  0  0  0  0  0  0  0  0  0  0
    7.4038    5.6344    0.0000 C   0  0  0  0  0  0  0  0  0  0  0  0
    8.3528    4.4727    0.0000 C   0  0  0  0  0  0  0  0  0  0  0  0
    1.7436    3.3971    0.0000 C   0  0  0  0  0  0  0  0  0  0  0  0
    0.5819    2.4482    0.0000 C   0  0  0  0  0  0  0  0  0  0  0  0
  1  2  2  0
  2  3  1  0
  2 13  1  0
  3  4  1  0
  4  5  1  0
  4 12  1  0
  5  6  2  0
  6  7  1  0
  7  8  1  0
  7 12  2  0
  8  9  2  0
  9 10  1  0
 10 11  2  0
 11 12  1  0
 13 14  1  0
 13 30  1  0
 14 15  1  0
 14 25  1  0
 15 16  2  0
 15 17  1  0
 17 18  1  0
 18 19  1  0
 19 20  2  0
 19 24  1  0
 20 21  1  0
 21 22  2  0
 22 23  1  0
 23 24  2  0
 25 26  1  0
 25 29  2  0
 26 27  2  0
 27 28  1  0
 28 29  1  0
 30 31  2  0
 30 41  1  0
 31 32  1  0
 32 33  2  0
 33 34  1  0
 33 40  1  0
 34 35  1  0
 35 36  2  0
 35 37  1  0
 37 38  1  0
 37 39  1  0
 38 39  1  0
 40 41  2  0
M  END
>  <s_m_entry_id>  (259) 
534

>  <s_m_entry_name>  (259) 
3C-like_protease_GHDDI_ligprep.153

>  <s_m_Source_Path>  (259) 
/home/jgilaber/drug_learning/drug_learning/datasets/SAR1/GHDDI

>  <s_m_Source_File>  (259) 
3C-like_protease_GHDDI_ligprep.sdf

>  <i_m_Source_File_Index>  (259) 
153

>  <s_m_subgroup_title>  (259) 
3C-like_protease_GHDDI_ligprep

>  <s_m_subgroupid>  (259) 
3C-like_protease_GHDDI_ligprep

>  <b_m_subgroup_collapsed>  (259) 
0

$$$$
13718
     RDKit          2D

 43 47  0  0  1  0  0  0  0  0999 V2000
    8.1094    4.2666    0.0000 C   0  0  0  0  0  0  0  0  0  0  0  0
    6.6638    4.6669    0.0000 C   0  0  0  0  0  0  0  0  0  0  0  0
    6.2877    6.1190    0.0000 C   0  0  0  0  0  0  0  0  0  0  0  0
    5.5944    3.6151    0.0000 C   0  0  0  0  0  0  0  0  0  0  0  0
    5.9705    2.1631    0.0000 O   0  0  0  0  0  0  0  0  0  0  0  0
    4.1488    4.0155    0.0000 N   0  0  0  0  0  0  0  0  0  0  0  0
    3.0793    2.9637    0.0000 C   0  0  0  0  0  0  0  0  0  0  0  0
    3.4554    1.5116    0.0000 C   0  0  0  0  0  0  0  0  0  0  0  0
    2.3859    0.4599    0.0000 C   0  0  0  0  0  0  0  0  0  0  0  0
    0.9403    0.8602    0.0000 C   0  0  0  0  0  0  0  0  0  0  0  0
    0.5642    2.3123    0.0000 C   0  0  0  0  0  0  0  0  0  0  0  0
    1.6337    3.3640    0.0000 C   0  0  0  0  0  0  0  0  0  0  0  0
   -0.1292   -0.1916    0.0000 N   0  0  0  0  0  0  0  0  0  0  0  0
   -1.5748    0.2088    0.0000 C   0  0  0  0  0  0  0  0  0  0  0  0
   -2.6443   -0.8430    0.0000 C   0  0  0  0  0  0  0  0  0  0  0  0
   -2.2682   -2.2951    0.0000 O   0  0  0  0  0  0  0  0  0  0  0  0
   -4.0899   -0.4427    0.0000 N   0  0  0  0  0  0  0  0  0  0  0  0
   -5.1593   -1.4944    0.0000 C   0  0  0  0  0  0  0  0  0  0  0  0
   -6.6049   -1.0941    0.0000 C   0  0  0  0  0  0  0  0  0  0  0  0
   -6.9810    0.3580    0.0000 C   0  0  0  0  0  0  0  0  0  0  0  0
   -8.4266    0.7583    0.0000 C   0  0  0  0  0  0  0  0  0  0  0  0
   -9.4961   -0.2935    0.0000 C   0  0  0  0  0  0  0  0  0  0  0  0
   -9.1200   -1.7456    0.0000 C   0  0  0  0  0  0  0  0  0  0  0  0
   -7.6744   -2.1459    0.0000 C   0  0  0  0  0  0  0  0  0  0  0  0
   -1.9509    1.6608    0.0000 C   0  0  0  0  0  0  0  0  0  0  0  0
   -0.8814    2.7126    0.0000 C   0  0  0  0  0  0  0  0  0  0  0  0
   -1.2575    4.1647    0.0000 C   0  0  0  0  0  0  0  0  0  0  0  0
   -2.7031    4.5650    0.0000 C   0  0  0  0  0  0  0  0  0  0  0  0
   -3.7726    3.5132    0.0000 C   0  0  0  0  0  0  0  0  0  0  0  0
   -5.2182    3.9136    0.0000 F   0  0  0  0  0  0  0  0  0  0  0  0
   -3.3965    2.0612    0.0000 C   0  0  0  0  0  0  0  0  0  0  0  0
    0.2469   -1.6437    0.0000 C   0  0  0  0  0  0  0  0  0  0  0  0
   -0.8226   -2.6954    0.0000 O   0  0  0  0  0  0  0  0  0  0  0  0
    1.6925   -2.0440    0.0000 C   0  0  0  0  0  0  0  0  0  0  0  0
    2.0686   -3.4961    0.0000 N   0  0  0  0  0  0  0  0  0  0  0  0
    1.1149   -4.6538    0.0000 N   0  0  0  0  0  0  0  0  0  0  0  0
    1.9214   -5.9186    0.0000 N   0  0  0  0  0  0  0  0  0  0  0  0
    3.3734   -5.5425    0.0000 C   0  0  0  0  0  0  0  0  0  0  0  0
    4.6246   -6.3700    0.0000 C   0  0  0  0  0  0  0  0  0  0  0  0
    5.9667   -5.7002    0.0000 C   0  0  0  0  0  0  0  0  0  0  0  0
    6.0577   -4.2029    0.0000 C   0  0  0  0  0  0  0  0  0  0  0  0
    4.8066   -3.3755    0.0000 C   0  0  0  0  0  0  0  0  0  0  0  0
    3.4645   -4.0453    0.0000 C   0  0  0  0  0  0  0  0  0  0  0  0
  1  2  1  0
  2  3  1  0
  2  4  1  0
  4  5  2  0
  4  6  1  0
  6  7  1  0
  7  8  2  0
  7 12  1  0
  8  9  1  0
  9 10  2  0
 10 11  1  0
 10 13  1  0
 11 12  2  0
 13 14  1  0
 13 32  1  0
 14 15  1  0
 14 25  1  0
 15 16  2  0
 15 17  1  0
 17 18  1  0
 18 19  1  0
 19 20  2  0
 19 24  1  0
 20 21  1  0
 21 22  2  0
 22 23  1  0
 23 24  2  0
 25 26  2  0
 25 31  1  0
 26 27  1  0
 27 28  2  0
 28 29  1  0
 29 30  1  0
 29 31  2  0
 32 33  2  0
 32 34  1  0
 34 35  1  0
 35 36  1  0
 35 43  1  0
 36 37  2  0
 37 38  1  0
 38 39  1  0
 38 43  2  0
 39 40  2  0
 40 41  1  0
 41 42  2  0
 42 43  1  0
M  END
>  <s_m_entry_id>  (260) 
536

>  <s_m_entry_name>  (260) 
3C-like_protease_GHDDI_ligprep.155

>  <s_m_Source_Path>  (260) 
/home/jgilaber/drug_learning/drug_learning/datasets/SAR1/GHDDI

>  <s_m_Source_File>  (260) 
3C-like_protease_GHDDI_ligprep.sdf

>  <i_m_Source_File_Index>  (260) 
155

>  <s_m_subgroup_title>  (260) 
3C-like_protease_GHDDI_ligprep

>  <s_m_subgroupid>  (260) 
3C-like_protease_GHDDI_ligprep

>  <b_m_subgroup_collapsed>  (260) 
0

$$$$
13719
     RDKit          2D

 21 23  0  0  1  0  0  0  0  0999 V2000
   -7.0612    0.7471    0.0000 C   0  0  0  0  0  0  0  0  0  0  0  0
   -5.5852    0.4800    0.0000 C   0  0  0  0  0  0  0  0  0  0  0  0
   -4.6159    1.6247    0.0000 C   0  0  0  0  0  0  0  0  0  0  0  0
   -3.1399    1.3577    0.0000 C   0  0  0  0  0  0  0  0  0  0  0  0
   -2.6331   -0.0541    0.0000 N   0  0  0  0  0  0  0  0  0  0  0  0
   -3.6024   -1.1989    0.0000 C   0  0  0  0  0  0  0  0  0  0  0  0
   -5.0785   -0.9318    0.0000 C   0  0  0  0  0  0  0  0  0  0  0  0
   -1.1571   -0.3212    0.0000 S   0  0  0  0  0  0  0  0  0  0  0  0
   -0.8900    1.1548    0.0000 O   0  0  0  0  0  0  0  0  0  0  0  0
   -1.4242   -1.7972    0.0000 O   0  0  0  0  0  0  0  0  0  0  0  0
    0.3189   -0.5883    0.0000 C   0  0  0  0  0  0  0  0  0  0  0  0
    0.8257   -2.0001    0.0000 C   0  0  0  0  0  0  0  0  0  0  0  0
    2.3017   -2.2672    0.0000 C   0  0  0  0  0  0  0  0  0  0  0  0
    3.2710   -1.1224    0.0000 C   0  0  0  0  0  0  0  0  0  0  0  0
    4.7703   -1.0768    0.0000 N   0  0  0  0  0  0  0  0  0  0  0  0
    5.1902    0.3633    0.0000 C   0  0  0  0  0  0  0  0  0  0  0  0
    6.6020    0.8700    0.0000 O   0  0  0  0  0  0  0  0  0  0  0  0
    3.9504    1.2076    0.0000 C   0  0  0  0  0  0  0  0  0  0  0  0
    3.9047    2.7069    0.0000 O   0  0  0  0  0  0  0  0  0  0  0  0
    2.7643    0.2894    0.0000 C   0  0  0  0  0  0  0  0  0  0  0  0
    1.2882    0.5565    0.0000 C   0  0  0  0  0  0  0  0  0  0  0  0
  1  2  1  0
  2  3  1  0
  2  7  1  0
  3  4  1  0
  4  5  1  0
  5  6  1  0
  5  8  1  0
  6  7  1  0
  8  9  2  0
  8 10  2  0
  8 11  1  0
 11 12  2  0
 11 21  1  0
 12 13  1  0
 13 14  2  0
 14 15  1  0
 14 20  1  0
 15 16  1  0
 16 17  2  0
 16 18  1  0
 18 19  2  0
 18 20  1  0
 20 21  2  0
M  END
>  <s_m_entry_id>  (261) 
538

>  <s_m_entry_name>  (261) 
3C-like_protease_GHDDI_ligprep.157

>  <s_m_Source_Path>  (261) 
/home/jgilaber/drug_learning/drug_learning/datasets/SAR1/GHDDI

>  <s_m_Source_File>  (261) 
3C-like_protease_GHDDI_ligprep.sdf

>  <i_m_Source_File_Index>  (261) 
157

>  <s_m_subgroup_title>  (261) 
3C-like_protease_GHDDI_ligprep

>  <s_m_subgroupid>  (261) 
3C-like_protease_GHDDI_ligprep

>  <b_m_subgroup_collapsed>  (261) 
0

$$$$
13721
     RDKit          2D

 34 35  0  0  1  0  0  0  0  0999 V2000
   -7.7834   -3.2588    0.0000 C   0  0  0  0  0  0  0  0  0  0  0  0
   -6.2872   -3.1518    0.0000 C   0  0  0  0  0  0  0  0  0  0  0  0
   -5.4465   -4.3941    0.0000 C   0  0  0  0  0  0  0  0  0  0  0  0
   -5.6318   -1.8026    0.0000 C   0  0  0  0  0  0  0  0  0  0  0  0
   -4.1356   -1.6956    0.0000 C   0  0  0  0  0  0  0  0  0  0  0  0
   -3.2948   -2.9379    0.0000 N   0  0  0  0  0  0  0  0  0  0  0  0
   -1.7987   -2.8309    0.0000 C   0  0  0  0  0  0  0  0  0  0  0  0
   -1.1432   -1.4817    0.0000 O   0  0  0  0  0  0  0  0  0  0  0  0
   -0.9579   -4.0732    0.0000 C   0  0  0  0  0  0  0  0  0  0  0  0
   -3.4801   -0.3464    0.0000 C   0  0  0  0  0  0  0  0  0  0  0  0
   -4.3208    0.8958    0.0000 O   0  0  0  0  0  0  0  0  0  0  0  0
   -1.9839   -0.2394    0.0000 N   0  0  0  0  0  0  0  0  0  0  0  0
   -1.3285    1.1098    0.0000 C   0  0  0  0  0  0  0  0  0  0  0  0
   -2.1692    2.3520    0.0000 C   0  0  0  0  0  0  0  0  0  0  0  0
   -1.5138    3.7012    0.0000 C   0  0  0  0  0  0  0  0  0  0  0  0
   -0.0369    3.9640    0.0000 C   0  0  0  0  0  0  0  0  0  0  0  0
    0.1695    5.4497    0.0000 C   0  0  0  0  0  0  0  0  0  0  0  0
   -1.1797    6.1052    0.0000 N   0  0  0  0  0  0  0  0  0  0  0  0
   -2.2200    5.0246    0.0000 C   0  0  0  0  0  0  0  0  0  0  0  0
   -3.7057    5.2310    0.0000 O   0  0  0  0  0  0  0  0  0  0  0  0
    0.1677    1.2167    0.0000 C   0  0  0  0  0  0  0  0  0  0  0  0
    0.8232    2.5659    0.0000 O   0  0  0  0  0  0  0  0  0  0  0  0
    1.0084   -0.0255    0.0000 C   0  0  0  0  0  0  0  0  0  0  0  0
    2.5046    0.0815    0.0000 O   0  0  0  0  0  0  0  0  0  0  0  0
    3.3453   -1.1608    0.0000 C   0  0  0  0  0  0  0  0  0  0  0  0
    2.6899   -2.5100    0.0000 O   0  0  0  0  0  0  0  0  0  0  0  0
    4.8415   -1.0538    0.0000 C   0  0  0  0  0  0  0  0  0  0  0  0
    5.6822   -2.2961    0.0000 C   0  0  0  0  0  0  0  0  0  0  0  0
    5.0268   -3.6453    0.0000 Cl  0  0  0  0  0  0  0  0  0  0  0  0
    7.1784   -2.1891    0.0000 C   0  0  0  0  0  0  0  0  0  0  0  0
    7.8339   -0.8399    0.0000 C   0  0  0  0  0  0  0  0  0  0  0  0
    6.9932    0.4024    0.0000 C   0  0  0  0  0  0  0  0  0  0  0  0
    5.4970    0.2954    0.0000 C   0  0  0  0  0  0  0  0  0  0  0  0
    4.6562    1.5376    0.0000 Cl  0  0  0  0  0  0  0  0  0  0  0  0
  1  2  1  0
  2  3  1  0
  2  4  1  0
  4  5  1  0
  5  6  1  0
  5 10  1  0
  6  7  1  0
  7  8  2  0
  7  9  1  0
 10 11  2  0
 10 12  1  0
 12 13  1  0
 13 14  1  0
 13 21  1  0
 14 15  1  0
 15 16  1  0
 15 19  1  0
 16 17  1  0
 17 18  1  0
 18 19  1  0
 19 20  2  0
 21 22  2  0
 21 23  1  0
 23 24  1  0
 24 25  1  0
 25 26  2  0
 25 27  1  0
 27 28  2  0
 27 33  1  0
 28 29  1  0
 28 30  1  0
 30 31  2  0
 31 32  1  0
 32 33  2  0
 33 34  1  0
M  END
>  <s_m_entry_id>  (262) 
540

>  <s_m_entry_name>  (262) 
3C-like_protease_GHDDI_ligprep.159

>  <s_m_Source_Path>  (262) 
/home/jgilaber/drug_learning/drug_learning/datasets/SAR1/GHDDI

>  <s_m_Source_File>  (262) 
3C-like_protease_GHDDI_ligprep.sdf

>  <i_m_Source_File_Index>  (262) 
159

>  <s_m_subgroup_title>  (262) 
3C-like_protease_GHDDI_ligprep

>  <s_m_subgroupid>  (262) 
3C-like_protease_GHDDI_ligprep

>  <b_m_subgroup_collapsed>  (262) 
0

$$$$
13724
     RDKit          2D

 33 37  0  0  1  0  0  0  0  0999 V2000
   -4.4080    1.9092    0.0000 O   0  0  0  0  0  0  0  0  0  0  0  0
   -3.0117    1.3610    0.0000 C   0  0  0  0  0  0  0  0  0  0  0  0
   -2.7883   -0.1223    0.0000 C   0  0  0  0  0  0  0  0  0  0  0  0
   -3.9612   -1.0574    0.0000 N   0  0  0  0  0  0  0  0  0  0  0  0
   -5.4071   -0.6582    0.0000 N   0  0  0  0  0  0  0  0  0  0  0  0
   -6.2336   -1.9099    0.0000 N   0  0  0  0  0  0  0  0  0  0  0  0
   -5.2985   -3.0828    0.0000 C   0  0  0  0  0  0  0  0  0  0  0  0
   -5.5443   -4.5625    0.0000 C   0  0  0  0  0  0  0  0  0  0  0  0
   -4.3858   -5.5153    0.0000 C   0  0  0  0  0  0  0  0  0  0  0  0
   -2.9814   -4.9884    0.0000 C   0  0  0  0  0  0  0  0  0  0  0  0
   -2.7355   -3.5087    0.0000 C   0  0  0  0  0  0  0  0  0  0  0  0
   -3.8940   -2.5559    0.0000 C   0  0  0  0  0  0  0  0  0  0  0  0
   -1.8389    2.2961    0.0000 N   0  0  0  0  0  0  0  0  0  0  0  0
   -2.0623    3.7794    0.0000 C   0  0  0  0  0  0  0  0  0  0  0  0
   -0.8894    4.7145    0.0000 C   0  0  0  0  0  0  0  0  0  0  0  0
   -0.9566    6.2130    0.0000 C   0  0  0  0  0  0  0  0  0  0  0  0
    0.4478    6.7399    0.0000 C   0  0  0  0  0  0  0  0  0  0  0  0
    1.3829    5.5671    0.0000 S   0  0  0  0  0  0  0  0  0  0  0  0
    0.5565    4.3153    0.0000 C   0  0  0  0  0  0  0  0  0  0  0  0
   -0.4426    1.7480    0.0000 C   0  0  0  0  0  0  0  0  0  0  0  0
   -0.2192    0.2647    0.0000 C   0  0  0  0  0  0  0  0  0  0  0  0
    1.1770   -0.2835    0.0000 C   0  0  0  0  0  0  0  0  0  0  0  0
    2.3499    0.6516    0.0000 C   0  0  0  0  0  0  0  0  0  0  0  0
    3.7461    0.1035    0.0000 N   0  0  0  0  0  0  0  0  0  0  0  0
    3.9695   -1.3798    0.0000 C   0  0  0  0  0  0  0  0  0  0  0  0
    5.3658   -1.9280    0.0000 C   0  0  0  0  0  0  0  0  0  0  0  0
    5.5892   -3.4112    0.0000 C   0  0  0  0  0  0  0  0  0  0  0  0
    6.9854   -3.9594    0.0000 C   0  0  0  0  0  0  0  0  0  0  0  0
    8.1583   -3.0243    0.0000 C   0  0  0  0  0  0  0  0  0  0  0  0
    7.9349   -1.5410    0.0000 C   0  0  0  0  0  0  0  0  0  0  0  0
    6.5386   -0.9929    0.0000 C   0  0  0  0  0  0  0  0  0  0  0  0
    2.1265    2.1349    0.0000 C   0  0  0  0  0  0  0  0  0  0  0  0
    0.7302    2.6831    0.0000 C   0  0  0  0  0  0  0  0  0  0  0  0
  1  2  2  0
  2  3  1  0
  2 13  1  0
  3  4  1  0
  4  5  1  0
  4 12  1  0
  5  6  2  0
  6  7  1  0
  7  8  1  0
  7 12  2  0
  8  9  2  0
  9 10  1  0
 10 11  2  0
 11 12  1  0
 13 14  1  0
 13 20  1  0
 14 15  1  0
 15 16  1  0
 15 19  2  0
 16 17  2  0
 17 18  1  0
 18 19  1  0
 20 21  2  0
 20 33  1  0
 21 22  1  0
 22 23  2  0
 23 24  1  0
 23 32  1  0
 24 25  1  0
 25 26  1  0
 26 27  2  0
 26 31  1  0
 27 28  1  0
 28 29  2  0
 29 30  1  0
 30 31  2  0
 32 33  2  0
M  END
>  <s_m_entry_id>  (263) 
544

>  <s_m_entry_name>  (263) 
3C-like_protease_GHDDI_ligprep.163

>  <s_m_Source_Path>  (263) 
/home/jgilaber/drug_learning/drug_learning/datasets/SAR1/GHDDI

>  <s_m_Source_File>  (263) 
3C-like_protease_GHDDI_ligprep.sdf

>  <i_m_Source_File_Index>  (263) 
163

>  <s_m_subgroup_title>  (263) 
3C-like_protease_GHDDI_ligprep

>  <s_m_subgroupid>  (263) 
3C-like_protease_GHDDI_ligprep

>  <b_m_subgroup_collapsed>  (263) 
0

$$$$
13725
     RDKit          2D

 57 60  0  0  1  0  0  0  0  0999 V2000
   -7.4789    2.9907    0.0000 C   0  0  0  0  0  0  0  0  0  0  0  0
   -6.3215    3.9448    0.0000 C   0  0  0  0  0  0  0  0  0  0  0  0
   -6.5691    5.4243    0.0000 C   0  0  0  0  0  0  0  0  0  0  0  0
   -4.9165    3.4196    0.0000 C   0  0  0  0  0  0  0  0  0  0  0  0
   -3.7590    4.3737    0.0000 N   0  0  0  0  0  0  0  0  0  0  0  0
   -2.3540    3.8484    0.0000 C   0  0  0  0  0  0  0  0  0  0  0  0
   -2.1064    2.3690    0.0000 O   0  0  0  0  0  0  0  0  0  0  0  0
   -1.1966    4.8026    0.0000 O   0  0  0  0  0  0  0  0  0  0  0  0
    0.2084    4.2773    0.0000 C   0  0  0  0  0  0  0  0  0  0  0  0
    1.3658    5.2314    0.0000 C   0  0  0  0  0  0  0  0  0  0  0  0
    2.7708    4.7062    0.0000 C   0  0  0  0  0  0  0  0  0  0  0  0
    3.9283    5.6603    0.0000 C   0  0  0  0  0  0  0  0  0  0  0  0
    3.6807    7.1397    0.0000 C   0  0  0  0  0  0  0  0  0  0  0  0
    2.2756    7.6650    0.0000 C   0  0  0  0  0  0  0  0  0  0  0  0
    1.1182    6.7109    0.0000 C   0  0  0  0  0  0  0  0  0  0  0  0
   -4.6689    1.9401    0.0000 C   0  0  0  0  0  0  0  0  0  0  0  0
   -3.2638    1.4149    0.0000 O   0  0  0  0  0  0  0  0  0  0  0  0
   -5.8263    0.9860    0.0000 N   0  0  0  0  0  0  0  0  0  0  0  0
   -5.5787   -0.4934    0.0000 C   0  0  0  0  0  0  0  0  0  0  0  0
   -6.7361   -1.4476    0.0000 C   0  0  0  0  0  0  0  0  0  0  0  0
   -6.4885   -2.9270    0.0000 C   0  0  0  0  0  0  0  0  0  0  0  0
   -7.6459   -3.8811    0.0000 C   0  0  0  0  0  0  0  0  0  0  0  0
   -7.3983   -5.3606    0.0000 C   0  0  0  0  0  0  0  0  0  0  0  0
   -5.9933   -5.8858    0.0000 C   0  0  0  0  0  0  0  0  0  0  0  0
   -4.8358   -4.9317    0.0000 C   0  0  0  0  0  0  0  0  0  0  0  0
   -5.0835   -3.4523    0.0000 C   0  0  0  0  0  0  0  0  0  0  0  0
   -4.1736   -1.0187    0.0000 C   0  0  0  0  0  0  0  0  0  0  0  0
   -3.0162   -0.0646    0.0000 O   0  0  0  0  0  0  0  0  0  0  0  0
   -3.9260   -2.4981    0.0000 N   0  0  0  0  0  0  0  0  0  0  0  0
   -2.5210   -3.0234    0.0000 C   0  0  0  0  0  0  0  0  0  0  0  0
   -2.2734   -4.5028    0.0000 C   0  0  0  0  0  0  0  0  0  0  0  0
   -0.8684   -5.0281    0.0000 C   0  0  0  0  0  0  0  0  0  0  0  0
   -3.4308   -5.4570    0.0000 O   0  0  0  0  0  0  0  0  0  0  0  0
   -1.3636   -2.0693    0.0000 C   0  0  0  0  0  0  0  0  0  0  0  0
   -1.6112   -0.5898    0.0000 O   0  0  0  0  0  0  0  0  0  0  0  0
    0.0414   -2.5945    0.0000 N   0  0  0  0  0  0  0  0  0  0  0  0
    1.1988   -1.6404    0.0000 C   0  0  0  0  0  0  0  0  0  0  0  0
    0.9512   -0.1610    0.0000 C   0  0  0  0  0  0  0  0  0  0  0  0
    2.1086    0.7932    0.0000 C   0  0  0  0  0  0  0  0  0  0  0  0
    1.8610    2.2726    0.0000 C   0  0  0  0  0  0  0  0  0  0  0  0
    3.0185    3.2267    0.0000 C   0  0  0  0  0  0  0  0  0  0  0  0
    4.4235    2.7015    0.0000 C   0  0  0  0  0  0  0  0  0  0  0  0
    4.6711    1.2220    0.0000 C   0  0  0  0  0  0  0  0  0  0  0  0
    3.5137    0.2679    0.0000 C   0  0  0  0  0  0  0  0  0  0  0  0
    2.6039   -2.1657    0.0000 C   0  0  0  0  0  0  0  0  0  0  0  0
    2.8515   -3.6451    0.0000 O   0  0  0  0  0  0  0  0  0  0  0  0
    3.7613   -1.2115    0.0000 N   0  0  0  0  0  0  0  0  0  0  0  0
    5.1663   -1.7368    0.0000 C   0  0  0  0  0  0  0  0  0  0  0  0
    5.4139   -3.2162    0.0000 C   0  0  0  0  0  0  0  0  0  0  0  0
    6.8189   -3.7415    0.0000 C   0  0  0  0  0  0  0  0  0  0  0  0
    7.9763   -2.7874    0.0000 C   0  0  0  0  0  0  0  0  0  0  0  0
    7.7287   -1.3079    0.0000 C   0  0  0  0  0  0  0  0  0  0  0  0
    6.3237   -0.7827    0.0000 C   0  0  0  0  0  0  0  0  0  0  0  0
    6.0761    0.6968    0.0000 Cl  0  0  0  0  0  0  0  0  0  0  0  0
    9.3814   -3.3126    0.0000 N   0  0  0  0  0  0  0  0  0  0  0  0
    9.6290   -4.7921    0.0000 O   0  0  0  0  0  0  0  0  0  0  0  0
   10.5388   -2.3585    0.0000 O   0  0  0  0  0  0  0  0  0  0  0  0
  1  2  1  0
  2  3  1  0
  2  4  1  0
  4  5  1  0
  4 16  1  0
  5  6  1  0
  6  7  2  0
  6  8  1  0
  8  9  1  0
  9 10  1  0
 10 11  2  0
 10 15  1  0
 11 12  1  0
 12 13  2  0
 13 14  1  0
 14 15  2  0
 16 17  2  0
 16 18  1  0
 18 19  1  0
 19 20  1  0
 19 27  1  0
 20 21  1  0
 21 22  2  0
 21 26  1  0
 22 23  1  0
 23 24  2  0
 24 25  1  0
 25 26  2  0
 27 28  2  0
 27 29  1  0
 29 30  1  0
 30 31  1  0
 30 34  1  0
 31 32  1  0
 31 33  1  0
 34 35  2  0
 34 36  1  0
 36 37  1  0
 37 38  1  0
 37 45  1  0
 38 39  1  0
 39 40  2  0
 39 44  1  0
 40 41  1  0
 41 42  2  0
 42 43  1  0
 43 44  2  0
 45 46  2  0
 45 47  1  0
 47 48  1  0
 48 49  2  0
 48 53  1  0
 49 50  1  0
 50 51  2  0
 51 52  1  0
 51 55  1  0
 52 53  2  0
 53 54  1  0
 55 56  2  0
 55 57  1  0
M  CHG  2  55   1  57  -1
M  END
>  <s_m_entry_id>  (264) 
545

>  <s_m_entry_name>  (264) 
3C-like_protease_GHDDI_ligprep.164

>  <s_m_Source_Path>  (264) 
/home/jgilaber/drug_learning/drug_learning/datasets/SAR1/GHDDI

>  <s_m_Source_File>  (264) 
3C-like_protease_GHDDI_ligprep.sdf

>  <i_m_Source_File_Index>  (264) 
164

>  <s_m_subgroup_title>  (264) 
3C-like_protease_GHDDI_ligprep

>  <s_m_subgroupid>  (264) 
3C-like_protease_GHDDI_ligprep

>  <b_m_subgroup_collapsed>  (264) 
0

$$$$
13728
     RDKit          2D

 55 58  0  0  1  0  0  0  0  0999 V2000
    6.6642    3.5670    0.0000 C   0  0  0  0  0  0  0  0  0  0  0  0
    5.2475    3.0744    0.0000 C   0  0  0  0  0  0  0  0  0  0  0  0
    4.1124    4.0550    0.0000 C   0  0  0  0  0  0  0  0  0  0  0  0
    4.9657    1.6011    0.0000 C   0  0  0  0  0  0  0  0  0  0  0  0
    6.1008    0.6204    0.0000 N   0  0  0  0  0  0  0  0  0  0  0  0
    7.5176    1.1131    0.0000 C   0  0  0  0  0  0  0  0  0  0  0  0
    7.7993    2.5864    0.0000 O   0  0  0  0  0  0  0  0  0  0  0  0
    8.6526    0.1325    0.0000 C   0  0  0  0  0  0  0  0  0  0  0  0
   10.1131    0.4743    0.0000 C   0  0  0  0  0  0  0  0  0  0  0  0
   10.8896   -0.8091    0.0000 C   0  0  0  0  0  0  0  0  0  0  0  0
   12.3843   -0.9352    0.0000 C   0  0  0  0  0  0  0  0  0  0  0  0
    9.9090   -1.9441    0.0000 O   0  0  0  0  0  0  0  0  0  0  0  0
    8.5264   -1.3622    0.0000 N   0  0  0  0  0  0  0  0  0  0  0  0
    3.5489    1.1084    0.0000 C   0  0  0  0  0  0  0  0  0  0  0  0
    2.4139    2.0890    0.0000 O   0  0  0  0  0  0  0  0  0  0  0  0
    3.2672   -0.3649    0.0000 N   0  0  0  0  0  0  0  0  0  0  0  0
    1.8504   -0.8576    0.0000 C   0  0  0  0  0  0  0  0  0  0  0  0
    1.5687   -2.3309    0.0000 C   0  0  0  0  0  0  0  0  0  0  0  0
    2.7038   -3.3115    0.0000 C   0  0  0  0  0  0  0  0  0  0  0  0
    2.4220   -4.7848    0.0000 C   0  0  0  0  0  0  0  0  0  0  0  0
    3.5571   -5.7655    0.0000 C   0  0  0  0  0  0  0  0  0  0  0  0
    4.9739   -5.2728    0.0000 C   0  0  0  0  0  0  0  0  0  0  0  0
    5.2556   -3.7995    0.0000 C   0  0  0  0  0  0  0  0  0  0  0  0
    4.1205   -2.8188    0.0000 C   0  0  0  0  0  0  0  0  0  0  0  0
    0.7154    0.1231    0.0000 C   0  0  0  0  0  0  0  0  0  0  0  0
   -0.7014   -0.3696    0.0000 O   0  0  0  0  0  0  0  0  0  0  0  0
    0.9971    1.5964    0.0000 N   0  0  0  0  0  0  0  0  0  0  0  0
   -0.1379    2.5770    0.0000 C   0  0  0  0  0  0  0  0  0  0  0  0
    0.1438    4.0503    0.0000 C   0  0  0  0  0  0  0  0  0  0  0  0
   -0.9913    5.0309    0.0000 C   0  0  0  0  0  0  0  0  0  0  0  0
    1.5606    4.5430    0.0000 O   0  0  0  0  0  0  0  0  0  0  0  0
   -1.5547    2.0843    0.0000 C   0  0  0  0  0  0  0  0  0  0  0  0
   -1.8365    0.6110    0.0000 O   0  0  0  0  0  0  0  0  0  0  0  0
   -2.6898    3.0650    0.0000 N   0  0  0  0  0  0  0  0  0  0  0  0
   -4.1066    2.5723    0.0000 C   0  0  0  0  0  0  0  0  0  0  0  0
   -5.2416    3.5529    0.0000 C   0  0  0  0  0  0  0  0  0  0  0  0
   -6.6584    3.0603    0.0000 C   0  0  0  0  0  0  0  0  0  0  0  0
   -7.7935    4.0409    0.0000 C   0  0  0  0  0  0  0  0  0  0  0  0
   -9.2103    3.5482    0.0000 C   0  0  0  0  0  0  0  0  0  0  0  0
   -9.4920    2.0749    0.0000 C   0  0  0  0  0  0  0  0  0  0  0  0
   -8.3569    1.0943    0.0000 C   0  0  0  0  0  0  0  0  0  0  0  0
   -6.9401    1.5870    0.0000 C   0  0  0  0  0  0  0  0  0  0  0  0
   -4.3883    1.0990    0.0000 C   0  0  0  0  0  0  0  0  0  0  0  0
   -3.2532    0.1184    0.0000 O   0  0  0  0  0  0  0  0  0  0  0  0
   -5.8051    0.6063    0.0000 N   0  0  0  0  0  0  0  0  0  0  0  0
   -6.0868   -0.8670    0.0000 C   0  0  0  0  0  0  0  0  0  0  0  0
   -7.5036   -1.3596    0.0000 C   0  0  0  0  0  0  0  0  0  0  0  0
   -7.7853   -2.8330    0.0000 C   0  0  0  0  0  0  0  0  0  0  0  0
   -6.6503   -3.8136    0.0000 C   0  0  0  0  0  0  0  0  0  0  0  0
   -5.2335   -3.3209    0.0000 C   0  0  0  0  0  0  0  0  0  0  0  0
   -4.9518   -1.8476    0.0000 C   0  0  0  0  0  0  0  0  0  0  0  0
   -3.5350   -1.3549    0.0000 Cl  0  0  0  0  0  0  0  0  0  0  0  0
   -6.9320   -5.2869    0.0000 N   0  0  0  0  0  0  0  0  0  0  0  0
   -5.7969   -6.2675    0.0000 O   0  0  0  0  0  0  0  0  0  0  0  0
   -8.3488   -5.7796    0.0000 O   0  0  0  0  0  0  0  0  0  0  0  0
  1  2  1  0
  2  3  1  0
  2  4  1  0
  4  5  1  0
  4 14  1  0
  5  6  1  0
  6  7  2  0
  6  8  1  0
  8  9  1  0
  8 13  2  0
  9 10  2  0
 10 11  1  0
 10 12  1  0
 12 13  1  0
 14 15  2  0
 14 16  1  0
 16 17  1  0
 17 18  1  0
 17 25  1  0
 18 19  1  0
 19 20  2  0
 19 24  1  0
 20 21  1  0
 21 22  2  0
 22 23  1  0
 23 24  2  0
 25 26  2  0
 25 27  1  0
 27 28  1  0
 28 29  1  0
 28 32  1  0
 29 30  1  0
 29 31  1  0
 32 33  2  0
 32 34  1  0
 34 35  1  0
 35 36  1  0
 35 43  1  0
 36 37  1  0
 37 38  2  0
 37 42  1  0
 38 39  1  0
 39 40  2  0
 40 41  1  0
 41 42  2  0
 43 44  2  0
 43 45  1  0
 45 46  1  0
 46 47  2  0
 46 51  1  0
 47 48  1  0
 48 49  2  0
 49 50  1  0
 49 53  1  0
 50 51  2  0
 51 52  1  0
 53 54  2  0
 53 55  1  0
M  CHG  2  53   1  55  -1
M  END
>  <s_m_entry_id>  (265) 
548

>  <s_m_entry_name>  (265) 
3C-like_protease_GHDDI_ligprep.167

>  <s_m_Source_Path>  (265) 
/home/jgilaber/drug_learning/drug_learning/datasets/SAR1/GHDDI

>  <s_m_Source_File>  (265) 
3C-like_protease_GHDDI_ligprep.sdf

>  <i_m_Source_File_Index>  (265) 
167

>  <s_m_subgroup_title>  (265) 
3C-like_protease_GHDDI_ligprep

>  <s_m_subgroupid>  (265) 
3C-like_protease_GHDDI_ligprep

>  <b_m_subgroup_collapsed>  (265) 
0

$$$$
13730
     RDKit          2D

 28 31  0  0  1  0  0  0  0  0999 V2000
   -8.4032   -0.9599    0.0000 C   0  0  0  0  0  0  0  0  0  0  0  0
   -6.9229   -0.7176    0.0000 C   0  0  0  0  0  0  0  0  0  0  0  0
   -6.3926    0.6856    0.0000 C   0  0  0  0  0  0  0  0  0  0  0  0
   -4.9123    0.9279    0.0000 C   0  0  0  0  0  0  0  0  0  0  0  0
   -3.9623   -0.2329    0.0000 N   0  0  0  0  0  0  0  0  0  0  0  0
   -4.4926   -1.6361    0.0000 C   0  0  0  0  0  0  0  0  0  0  0  0
   -5.9729   -1.8784    0.0000 C   0  0  0  0  0  0  0  0  0  0  0  0
   -2.4820    0.0094    0.0000 S   0  0  0  0  0  0  0  0  0  0  0  0
   -2.7243    1.4897    0.0000 O   0  0  0  0  0  0  0  0  0  0  0  0
   -2.2397   -1.4709    0.0000 O   0  0  0  0  0  0  0  0  0  0  0  0
   -1.0017    0.2517    0.0000 C   0  0  0  0  0  0  0  0  0  0  0  0
   -0.0517   -0.9091    0.0000 C   0  0  0  0  0  0  0  0  0  0  0  0
    1.4286   -0.6668    0.0000 C   0  0  0  0  0  0  0  0  0  0  0  0
    1.9589    0.7363    0.0000 C   0  0  0  0  0  0  0  0  0  0  0  0
    3.3565    1.2811    0.0000 N   0  0  0  0  0  0  0  0  0  0  0  0
    4.6187    0.4707    0.0000 C   0  0  0  0  0  0  0  0  0  0  0  0
    4.5479   -1.0277    0.0000 C   0  0  0  0  0  0  0  0  0  0  0  0
    3.2150   -1.7156    0.0000 C   0  0  0  0  0  0  0  0  0  0  0  0
    3.1442   -3.2139    0.0000 C   0  0  0  0  0  0  0  0  0  0  0  0
    4.4064   -4.0243    0.0000 C   0  0  0  0  0  0  0  0  0  0  0  0
    5.7394   -3.3364    0.0000 C   0  0  0  0  0  0  0  0  0  0  0  0
    5.8101   -1.8381    0.0000 C   0  0  0  0  0  0  0  0  0  0  0  0
    3.2702    2.7786    0.0000 C   0  0  0  0  0  0  0  0  0  0  0  0
    4.4310    3.7286    0.0000 O   0  0  0  0  0  0  0  0  0  0  0  0
    1.8193    3.1594    0.0000 C   0  0  0  0  0  0  0  0  0  0  0  0
    1.2745    4.5569    0.0000 O   0  0  0  0  0  0  0  0  0  0  0  0
    1.0089    1.8971    0.0000 C   0  0  0  0  0  0  0  0  0  0  0  0
   -0.4714    1.6548    0.0000 C   0  0  0  0  0  0  0  0  0  0  0  0
  1  2  1  0
  2  3  1  0
  2  7  1  0
  3  4  1  0
  4  5  1  0
  5  6  1  0
  5  8  1  0
  6  7  1  0
  8  9  2  0
  8 10  2  0
  8 11  1  0
 11 12  2  0
 11 28  1  0
 12 13  1  0
 13 14  2  0
 14 15  1  0
 14 27  1  0
 15 16  1  0
 15 23  1  0
 16 17  1  0
 17 18  2  0
 17 22  1  0
 18 19  1  0
 19 20  2  0
 20 21  1  0
 21 22  2  0
 23 24  2  0
 23 25  1  0
 25 26  2  0
 25 27  1  0
 27 28  2  0
M  END
>  <s_m_entry_id>  (266) 
554

>  <s_m_entry_name>  (266) 
3C-like_protease_GHDDI_ligprep.173

>  <s_m_Source_Path>  (266) 
/home/jgilaber/drug_learning/drug_learning/datasets/SAR1/GHDDI

>  <s_m_Source_File>  (266) 
3C-like_protease_GHDDI_ligprep.sdf

>  <i_m_Source_File_Index>  (266) 
173

>  <s_m_subgroup_title>  (266) 
3C-like_protease_GHDDI_ligprep

>  <s_m_subgroupid>  (266) 
3C-like_protease_GHDDI_ligprep

>  <b_m_subgroup_collapsed>  (266) 
0

$$$$
13731
     RDKit          2D

 33 37  0  0  1  0  0  0  0  0999 V2000
    3.1832    2.3994    0.0000 C   0  0  0  0  0  0  0  0  0  0  0  0
    3.3635    0.9102    0.0000 C   0  0  0  0  0  0  0  0  0  0  0  0
    4.7433    0.3218    0.0000 N   0  0  0  0  0  0  0  0  0  0  0  0
    5.0782   -1.1403    0.0000 C   0  0  0  0  0  0  0  0  0  0  0  0
    4.0922   -2.2707    0.0000 C   0  0  0  0  0  0  0  0  0  0  0  0
    2.6203   -1.9820    0.0000 C   0  0  0  0  0  0  0  0  0  0  0  0
    1.6343   -3.1124    0.0000 C   0  0  0  0  0  0  0  0  0  0  0  0
    0.1623   -2.8237    0.0000 C   0  0  0  0  0  0  0  0  0  0  0  0
   -0.3236   -1.4046    0.0000 C   0  0  0  0  0  0  0  0  0  0  0  0
   -1.7956   -1.1159    0.0000 C   0  0  0  0  0  0  0  0  0  0  0  0
   -2.2816    0.3032    0.0000 C   0  0  0  0  0  0  0  0  0  0  0  0
   -3.7535    0.5919    0.0000 C   0  0  0  0  0  0  0  0  0  0  0  0
   -4.3851    1.9524    0.0000 N   0  0  0  0  0  0  0  0  0  0  0  0
   -3.6557    3.2631    0.0000 C   0  0  0  0  0  0  0  0  0  0  0  0
   -2.1559    3.2867    0.0000 C   0  0  0  0  0  0  0  0  0  0  0  0
   -5.8743    1.7721    0.0000 C   0  0  0  0  0  0  0  0  0  0  0  0
   -7.0047    2.7581    0.0000 C   0  0  0  0  0  0  0  0  0  0  0  0
   -8.4238    2.2721    0.0000 C   0  0  0  0  0  0  0  0  0  0  0  0
   -8.7125    0.8002    0.0000 C   0  0  0  0  0  0  0  0  0  0  0  0
   -7.5821   -0.1858    0.0000 C   0  0  0  0  0  0  0  0  0  0  0  0
   -6.1630    0.3001    0.0000 C   0  0  0  0  0  0  0  0  0  0  0  0
   -4.8523   -0.4293    0.0000 S   0  0  0  0  0  0  0  0  0  0  0  0
   -2.7816   -2.2463    0.0000 C   0  0  0  0  0  0  0  0  0  0  0  0
   -2.2956   -3.6654    0.0000 C   0  0  0  0  0  0  0  0  0  0  0  0
   -3.2816   -4.7958    0.0000 C   0  0  0  0  0  0  0  0  0  0  0  0
   -0.8237   -3.9541    0.0000 C   0  0  0  0  0  0  0  0  0  0  0  0
    6.5723   -1.2736    0.0000 S   0  0  0  0  0  0  0  0  0  0  0  0
    7.1607    0.1062    0.0000 C   0  0  0  0  0  0  0  0  0  0  0  0
    8.5798    0.5922    0.0000 C   0  0  0  0  0  0  0  0  0  0  0  0
    8.8685    2.0641    0.0000 C   0  0  0  0  0  0  0  0  0  0  0  0
    7.7381    3.0501    0.0000 C   0  0  0  0  0  0  0  0  0  0  0  0
    6.3190    2.5642    0.0000 C   0  0  0  0  0  0  0  0  0  0  0  0
    6.0303    1.0922    0.0000 C   0  0  0  0  0  0  0  0  0  0  0  0
  1  2  1  0
  2  3  1  0
  3  4  2  0
  3 33  1  0
  4  5  1  0
  4 27  1  0
  5  6  1  0
  6  7  2  0
  7  8  1  0
  8  9  2  0
  8 26  1  0
  9 10  1  0
 10 11  2  0
 10 23  1  0
 11 12  1  0
 12 13  2  0
 12 22  1  0
 13 14  1  0
 13 16  1  0
 14 15  1  0
 16 17  2  0
 16 21  1  0
 17 18  1  0
 18 19  2  0
 19 20  1  0
 20 21  2  0
 21 22  1  0
 23 24  1  0
 24 25  1  0
 24 26  1  0
 27 28  1  0
 28 29  1  0
 28 33  2  0
 29 30  2  0
 30 31  1  0
 31 32  2  0
 32 33  1  0
M  CHG  2   3   1  13   1
M  END
>  <s_m_entry_id>  (267) 
559

>  <s_m_entry_name>  (267) 
3C-like_protease_GHDDI_ligprep.178

>  <s_m_Source_Path>  (267) 
/home/jgilaber/drug_learning/drug_learning/datasets/SAR1/GHDDI

>  <s_m_Source_File>  (267) 
3C-like_protease_GHDDI_ligprep.sdf

>  <i_m_Source_File_Index>  (267) 
178

>  <s_m_subgroup_title>  (267) 
3C-like_protease_GHDDI_ligprep

>  <s_m_subgroupid>  (267) 
3C-like_protease_GHDDI_ligprep

>  <b_m_subgroup_collapsed>  (267) 
0

$$$$
13732
     RDKit          2D

 66 69  0  0  1  0  0  0  0  0999 V2000
    7.1132    5.6842    0.0000 C   0  0  0  0  0  0  0  0  0  0  0  0
    5.6251    5.8730    0.0000 C   0  0  0  0  0  0  0  0  0  0  0  0
    5.0447    7.2562    0.0000 O   0  0  0  0  0  0  0  0  0  0  0  0
    4.7175    4.6788    0.0000 C   0  0  0  0  0  0  0  0  0  0  0  0
    3.2295    4.8676    0.0000 N   0  0  0  0  0  0  0  0  0  0  0  0
    2.3219    3.6734    0.0000 C   0  0  0  0  0  0  0  0  0  0  0  0
    2.9024    2.2902    0.0000 O   0  0  0  0  0  0  0  0  0  0  0  0
    0.8338    3.8622    0.0000 C   0  0  0  0  0  0  0  0  0  0  0  0
    0.2534    5.2454    0.0000 O   0  0  0  0  0  0  0  0  0  0  0  0
   -0.0738    2.6680    0.0000 C   0  0  0  0  0  0  0  0  0  0  0  0
    0.5067    1.2848    0.0000 O   0  0  0  0  0  0  0  0  0  0  0  0
   -1.5618    2.8568    0.0000 C   0  0  0  0  0  0  0  0  0  0  0  0
   -2.1423    4.2400    0.0000 O   0  0  0  0  0  0  0  0  0  0  0  0
   -2.4694    1.6625    0.0000 N   0  0  0  0  0  0  0  0  0  0  0  0
   -3.9575    1.8514    0.0000 C   0  0  0  0  0  0  0  0  0  0  0  0
   -4.5380    3.2345    0.0000 C   0  0  0  0  0  0  0  0  0  0  0  0
   -3.6304    4.4288    0.0000 C   0  0  0  0  0  0  0  0  0  0  0  0
   -6.0260    3.4234    0.0000 O   0  0  0  0  0  0  0  0  0  0  0  0
   -4.8651    0.6571    0.0000 C   0  0  0  0  0  0  0  0  0  0  0  0
   -6.3531    0.8460    0.0000 O   0  0  0  0  0  0  0  0  0  0  0  0
   -4.2846   -0.7260    0.0000 N   0  0  0  0  0  0  0  0  0  0  0  0
   -5.1922   -1.9203    0.0000 C   0  0  0  0  0  0  0  0  0  0  0  0
   -4.6117   -3.3034    0.0000 C   0  0  0  0  0  0  0  0  0  0  0  0
   -3.1236   -3.4923    0.0000 C   0  0  0  0  0  0  0  0  0  0  0  0
   -2.5432   -4.8754    0.0000 C   0  0  0  0  0  0  0  0  0  0  0  0
   -1.0551   -5.0642    0.0000 C   0  0  0  0  0  0  0  0  0  0  0  0
   -0.1475   -3.8700    0.0000 C   0  0  0  0  0  0  0  0  0  0  0  0
   -0.7280   -2.4868    0.0000 C   0  0  0  0  0  0  0  0  0  0  0  0
   -2.2161   -2.2980    0.0000 C   0  0  0  0  0  0  0  0  0  0  0  0
   -6.6802   -1.7314    0.0000 C   0  0  0  0  0  0  0  0  0  0  0  0
   -7.5878   -2.9257    0.0000 O   0  0  0  0  0  0  0  0  0  0  0  0
   -7.2607   -0.3483    0.0000 N   0  0  0  0  0  0  0  0  0  0  0  0
   -8.7488   -0.1594    0.0000 C   0  0  0  0  0  0  0  0  0  0  0  0
   -9.3293    1.2237    0.0000 C   0  0  0  0  0  0  0  0  0  0  0  0
  -10.8173    1.4126    0.0000 C   0  0  0  0  0  0  0  0  0  0  0  0
  -11.7249    0.2183    0.0000 C   0  0  0  0  0  0  0  0  0  0  0  0
  -11.1444   -1.1648    0.0000 C   0  0  0  0  0  0  0  0  0  0  0  0
   -9.6564   -1.3537    0.0000 C   0  0  0  0  0  0  0  0  0  0  0  0
   -9.0759   -2.7368    0.0000 Cl  0  0  0  0  0  0  0  0  0  0  0  0
  -13.2130    0.4072    0.0000 N   0  0  0  0  0  0  0  0  0  0  0  0
  -14.1206   -0.7871    0.0000 O   0  0  0  0  0  0  0  0  0  0  0  0
  -13.7934    1.7903    0.0000 O   0  0  0  0  0  0  0  0  0  0  0  0
    5.2980    3.2956    0.0000 C   0  0  0  0  0  0  0  0  0  0  0  0
    4.3904    2.1014    0.0000 O   0  0  0  0  0  0  0  0  0  0  0  0
    6.7861    3.1068    0.0000 N   0  0  0  0  0  0  0  0  0  0  0  0
    7.3666    1.7237    0.0000 C   0  0  0  0  0  0  0  0  0  0  0  0
    8.8546    1.5348    0.0000 C   0  0  0  0  0  0  0  0  0  0  0  0
    9.4351    0.1517    0.0000 C   0  0  0  0  0  0  0  0  0  0  0  0
    8.5275   -1.0426    0.0000 C   0  0  0  0  0  0  0  0  0  0  0  0
    9.1080   -2.4257    0.0000 C   0  0  0  0  0  0  0  0  0  0  0  0
   10.5960   -2.6146    0.0000 C   0  0  0  0  0  0  0  0  0  0  0  0
   11.5036   -1.4203    0.0000 C   0  0  0  0  0  0  0  0  0  0  0  0
   10.9232   -0.0372    0.0000 C   0  0  0  0  0  0  0  0  0  0  0  0
    6.4590    0.5294    0.0000 C   0  0  0  0  0  0  0  0  0  0  0  0
    4.9709    0.7182    0.0000 O   0  0  0  0  0  0  0  0  0  0  0  0
    7.0394   -0.8537    0.0000 N   0  0  0  0  0  0  0  0  0  0  0  0
    6.1318   -2.0480    0.0000 C   0  0  0  0  0  0  0  0  0  0  0  0
    4.6438   -1.8592    0.0000 C   0  0  0  0  0  0  0  0  0  0  0  0
    3.7362   -3.0534    0.0000 C   0  0  0  0  0  0  0  0  0  0  0  0
    4.3167   -4.4366    0.0000 C   0  0  0  0  0  0  0  0  0  0  0  0
    5.8047   -4.6254    0.0000 C   0  0  0  0  0  0  0  0  0  0  0  0
    6.7123   -3.4311    0.0000 C   0  0  0  0  0  0  0  0  0  0  0  0
    8.2004   -3.6200    0.0000 Cl  0  0  0  0  0  0  0  0  0  0  0  0
    3.4091   -5.6308    0.0000 N   0  0  0  0  0  0  0  0  0  0  0  0
    3.9896   -7.0140    0.0000 O   0  0  0  0  0  0  0  0  0  0  0  0
    1.9210   -5.4420    0.0000 O   0  0  0  0  0  0  0  0  0  0  0  0
  1  2  1  0
  2  3  1  0
  2  4  1  0
  4  5  1  0
  4 43  1  0
  5  6  1  0
  6  7  2  0
  6  8  1  0
  8  9  1  0
  8 10  1  0
 10 11  1  0
 10 12  1  0
 12 13  2  0
 12 14  1  0
 14 15  1  0
 15 16  1  0
 15 19  1  0
 16 17  1  0
 16 18  1  0
 19 20  2  0
 19 21  1  0
 21 22  1  0
 22 23  1  0
 22 30  1  0
 23 24  1  0
 24 25  2  0
 24 29  1  0
 25 26  1  0
 26 27  2  0
 27 28  1  0
 28 29  2  0
 30 31  2  0
 30 32  1  0
 32 33  1  0
 33 34  2  0
 33 38  1  0
 34 35  1  0
 35 36  2  0
 36 37  1  0
 36 40  1  0
 37 38  2  0
 38 39  1  0
 40 41  2  0
 40 42  1  0
 43 44  2  0
 43 45  1  0
 45 46  1  0
 46 47  1  0
 46 54  1  0
 47 48  1  0
 48 49  2  0
 48 53  1  0
 49 50  1  0
 50 51  2  0
 51 52  1  0
 52 53  2  0
 54 55  2  0
 54 56  1  0
 56 57  1  0
 57 58  2  0
 57 62  1  0
 58 59  1  0
 59 60  2  0
 60 61  1  0
 60 64  1  0
 61 62  2  0
 62 63  1  0
 64 65  2  0
 64 66  1  0
M  CHG  4  40   1  42  -1  64   1  66  -1
M  END
>  <s_m_entry_id>  (268) 
561

>  <s_m_entry_name>  (268) 
3C-like_protease_GHDDI_ligprep.180

>  <s_m_Source_Path>  (268) 
/home/jgilaber/drug_learning/drug_learning/datasets/SAR1/GHDDI

>  <s_m_Source_File>  (268) 
3C-like_protease_GHDDI_ligprep.sdf

>  <i_m_Source_File_Index>  (268) 
180

>  <s_m_subgroup_title>  (268) 
3C-like_protease_GHDDI_ligprep

>  <s_m_subgroupid>  (268) 
3C-like_protease_GHDDI_ligprep

>  <b_m_subgroup_collapsed>  (268) 
0

$$$$
13733
     RDKit          2D

 31 35  0  0  1  0  0  0  0  0999 V2000
    2.5074   -3.2676    0.0000 O   0  0  0  0  0  0  0  0  0  0  0  0
    1.6036   -2.0704    0.0000 C   0  0  0  0  0  0  0  0  0  0  0  0
    2.1886   -0.6891    0.0000 C   0  0  0  0  0  0  0  0  0  0  0  0
    3.6772   -0.5051    0.0000 N   0  0  0  0  0  0  0  0  0  0  0  0
    4.7012   -1.6012    0.0000 N   0  0  0  0  0  0  0  0  0  0  0  0
    6.0601   -0.9662    0.0000 N   0  0  0  0  0  0  0  0  0  0  0  0
    5.8760    0.5225    0.0000 C   0  0  0  0  0  0  0  0  0  0  0  0
    6.8592    1.6554    0.0000 C   0  0  0  0  0  0  0  0  0  0  0  0
    6.3696    3.0733    0.0000 C   0  0  0  0  0  0  0  0  0  0  0  0
    4.8969    3.3582    0.0000 C   0  0  0  0  0  0  0  0  0  0  0  0
    3.9138    2.2253    0.0000 C   0  0  0  0  0  0  0  0  0  0  0  0
    4.4033    0.8075    0.0000 C   0  0  0  0  0  0  0  0  0  0  0  0
    0.1150   -2.2544    0.0000 N   0  0  0  0  0  0  0  0  0  0  0  0
   -0.4700   -3.6357    0.0000 C   0  0  0  0  0  0  0  0  0  0  0  0
   -1.9586   -3.8197    0.0000 C   0  0  0  0  0  0  0  0  0  0  0  0
   -2.6847   -5.1323    0.0000 C   0  0  0  0  0  0  0  0  0  0  0  0
   -4.1574   -4.8473    0.0000 C   0  0  0  0  0  0  0  0  0  0  0  0
   -4.3415   -3.3586    0.0000 S   0  0  0  0  0  0  0  0  0  0  0  0
   -2.9825   -2.7236    0.0000 C   0  0  0  0  0  0  0  0  0  0  0  0
   -0.7888   -1.0572    0.0000 C   0  0  0  0  0  0  0  0  0  0  0  0
   -0.2038    0.3240    0.0000 C   0  0  0  0  0  0  0  0  0  0  0  0
   -1.1076    1.5212    0.0000 C   0  0  0  0  0  0  0  0  0  0  0  0
   -2.5962    1.3371    0.0000 C   0  0  0  0  0  0  0  0  0  0  0  0
   -3.1812   -0.0441    0.0000 C   0  0  0  0  0  0  0  0  0  0  0  0
   -2.2774   -1.2413    0.0000 C   0  0  0  0  0  0  0  0  0  0  0  0
   -3.5000    2.5343    0.0000 C   0  0  0  0  0  0  0  0  0  0  0  0
   -2.9150    3.9156    0.0000 C   0  0  0  0  0  0  0  0  0  0  0  0
   -3.8188    5.1128    0.0000 C   0  0  0  0  0  0  0  0  0  0  0  0
   -5.3074    4.9287    0.0000 N   0  0  0  0  0  0  0  0  0  0  0  0
   -5.8924    3.5475    0.0000 C   0  0  0  0  0  0  0  0  0  0  0  0
   -4.9886    2.3503    0.0000 C   0  0  0  0  0  0  0  0  0  0  0  0
  1  2  2  0
  2  3  1  0
  2 13  1  0
  3  4  1  0
  4  5  1  0
  4 12  1  0
  5  6  2  0
  6  7  1  0
  7  8  1  0
  7 12  2  0
  8  9  2  0
  9 10  1  0
 10 11  2  0
 11 12  1  0
 13 14  1  0
 13 20  1  0
 14 15  1  0
 15 16  1  0
 15 19  2  0
 16 17  2  0
 17 18  1  0
 18 19  1  0
 20 21  2  0
 20 25  1  0
 21 22  1  0
 22 23  2  0
 23 24  1  0
 23 26  1  0
 24 25  2  0
 26 27  2  0
 26 31  1  0
 27 28  1  0
 28 29  2  0
 29 30  1  0
 30 31  2  0
M  END
>  <s_m_entry_id>  (269) 
562

>  <s_m_entry_name>  (269) 
3C-like_protease_GHDDI_ligprep.181

>  <s_m_Source_Path>  (269) 
/home/jgilaber/drug_learning/drug_learning/datasets/SAR1/GHDDI

>  <s_m_Source_File>  (269) 
3C-like_protease_GHDDI_ligprep.sdf

>  <i_m_Source_File_Index>  (269) 
181

>  <s_m_subgroup_title>  (269) 
3C-like_protease_GHDDI_ligprep

>  <s_m_subgroupid>  (269) 
3C-like_protease_GHDDI_ligprep

>  <b_m_subgroup_collapsed>  (269) 
0

$$$$
13734
     RDKit          2D

 53 55  0  0  1  0  0  0  0  0999 V2000
    7.2583    3.2184    0.0000 C   0  0  0  0  0  0  0  0  0  0  0  0
    5.8238    2.7799    0.0000 C   0  0  0  0  0  0  0  0  0  0  0  0
    4.7268    3.8029    0.0000 C   0  0  0  0  0  0  0  0  0  0  0  0
    5.4864    1.3183    0.0000 C   0  0  0  0  0  0  0  0  0  0  0  0
    6.5833    0.2953    0.0000 N   0  0  0  0  0  0  0  0  0  0  0  0
    8.0178    0.7338    0.0000 C   0  0  0  0  0  0  0  0  0  0  0  0
    8.3553    2.1953    0.0000 O   0  0  0  0  0  0  0  0  0  0  0  0
    9.1148   -0.2893    0.0000 C   0  0  0  0  0  0  0  0  0  0  0  0
   10.1379    0.8077    0.0000 C   0  0  0  0  0  0  0  0  0  0  0  0
    8.0918   -1.3863    0.0000 C   0  0  0  0  0  0  0  0  0  0  0  0
   10.2118   -1.3123    0.0000 C   0  0  0  0  0  0  0  0  0  0  0  0
    4.0519    0.8798    0.0000 C   0  0  0  0  0  0  0  0  0  0  0  0
    2.9549    1.9028    0.0000 O   0  0  0  0  0  0  0  0  0  0  0  0
    3.7144   -0.5817    0.0000 N   0  0  0  0  0  0  0  0  0  0  0  0
    2.2799   -1.0202    0.0000 C   0  0  0  0  0  0  0  0  0  0  0  0
    1.9424   -2.4818    0.0000 C   0  0  0  0  0  0  0  0  0  0  0  0
    3.0394   -3.5048    0.0000 C   0  0  0  0  0  0  0  0  0  0  0  0
    2.7020   -4.9664    0.0000 C   0  0  0  0  0  0  0  0  0  0  0  0
    3.7990   -5.9894    0.0000 C   0  0  0  0  0  0  0  0  0  0  0  0
    5.2334   -5.5509    0.0000 C   0  0  0  0  0  0  0  0  0  0  0  0
    5.5709   -4.0894    0.0000 C   0  0  0  0  0  0  0  0  0  0  0  0
    4.4739   -3.0663    0.0000 C   0  0  0  0  0  0  0  0  0  0  0  0
    1.1829    0.0028    0.0000 C   0  0  0  0  0  0  0  0  0  0  0  0
   -0.2515   -0.4357    0.0000 O   0  0  0  0  0  0  0  0  0  0  0  0
    1.5204    1.4643    0.0000 N   0  0  0  0  0  0  0  0  0  0  0  0
    0.4234    2.4874    0.0000 C   0  0  0  0  0  0  0  0  0  0  0  0
    0.7609    3.9489    0.0000 C   0  0  0  0  0  0  0  0  0  0  0  0
   -0.3361    4.9720    0.0000 C   0  0  0  0  0  0  0  0  0  0  0  0
    2.1954    4.3874    0.0000 O   0  0  0  0  0  0  0  0  0  0  0  0
   -1.0111    2.0489    0.0000 C   0  0  0  0  0  0  0  0  0  0  0  0
   -1.3485    0.5873    0.0000 O   0  0  0  0  0  0  0  0  0  0  0  0
   -2.1080    3.0719    0.0000 N   0  0  0  0  0  0  0  0  0  0  0  0
   -3.5425    2.6334    0.0000 C   0  0  0  0  0  0  0  0  0  0  0  0
   -4.6395    3.6564    0.0000 C   0  0  0  0  0  0  0  0  0  0  0  0
   -6.0740    3.2179    0.0000 C   0  0  0  0  0  0  0  0  0  0  0  0
   -7.1710    4.2410    0.0000 C   0  0  0  0  0  0  0  0  0  0  0  0
   -8.6055    3.8025    0.0000 C   0  0  0  0  0  0  0  0  0  0  0  0
   -8.9429    2.3409    0.0000 C   0  0  0  0  0  0  0  0  0  0  0  0
   -7.8459    1.3179    0.0000 C   0  0  0  0  0  0  0  0  0  0  0  0
   -6.4115    1.7564    0.0000 C   0  0  0  0  0  0  0  0  0  0  0  0
   -3.8800    1.1719    0.0000 C   0  0  0  0  0  0  0  0  0  0  0  0
   -2.7830    0.1488    0.0000 O   0  0  0  0  0  0  0  0  0  0  0  0
   -5.3145    0.7334    0.0000 N   0  0  0  0  0  0  0  0  0  0  0  0
   -5.6520   -0.7282    0.0000 C   0  0  0  0  0  0  0  0  0  0  0  0
   -7.0864   -1.1667    0.0000 C   0  0  0  0  0  0  0  0  0  0  0  0
   -7.4239   -2.6282    0.0000 C   0  0  0  0  0  0  0  0  0  0  0  0
   -6.3269   -3.6513    0.0000 C   0  0  0  0  0  0  0  0  0  0  0  0
   -4.8924   -3.2128    0.0000 C   0  0  0  0  0  0  0  0  0  0  0  0
   -4.5550   -1.7512    0.0000 C   0  0  0  0  0  0  0  0  0  0  0  0
   -3.1205   -1.3127    0.0000 Cl  0  0  0  0  0  0  0  0  0  0  0  0
   -6.6644   -5.1128    0.0000 N   0  0  0  0  0  0  0  0  0  0  0  0
   -5.5674   -6.1359    0.0000 O   0  0  0  0  0  0  0  0  0  0  0  0
   -8.0989   -5.5513    0.0000 O   0  0  0  0  0  0  0  0  0  0  0  0
  1  2  1  0
  2  3  1  0
  2  4  1  0
  4  5  1  0
  4 12  1  0
  5  6  1  0
  6  7  2  0
  6  8  1  0
  8  9  1  0
  8 10  1  0
  8 11  1  0
 12 13  2  0
 12 14  1  0
 14 15  1  0
 15 16  1  0
 15 23  1  0
 16 17  1  0
 17 18  2  0
 17 22  1  0
 18 19  1  0
 19 20  2  0
 20 21  1  0
 21 22  2  0
 23 24  2  0
 23 25  1  0
 25 26  1  0
 26 27  1  0
 26 30  1  0
 27 28  1  0
 27 29  1  0
 30 31  2  0
 30 32  1  0
 32 33  1  0
 33 34  1  0
 33 41  1  0
 34 35  1  0
 35 36  2  0
 35 40  1  0
 36 37  1  0
 37 38  2  0
 38 39  1  0
 39 40  2  0
 41 42  2  0
 41 43  1  0
 43 44  1  0
 44 45  2  0
 44 49  1  0
 45 46  1  0
 46 47  2  0
 47 48  1  0
 47 51  1  0
 48 49  2  0
 49 50  1  0
 51 52  2  0
 51 53  1  0
M  CHG  2  51   1  53  -1
M  END
>  <s_m_entry_id>  (270) 
563

>  <s_m_entry_name>  (270) 
3C-like_protease_GHDDI_ligprep.182

>  <s_m_Source_Path>  (270) 
/home/jgilaber/drug_learning/drug_learning/datasets/SAR1/GHDDI

>  <s_m_Source_File>  (270) 
3C-like_protease_GHDDI_ligprep.sdf

>  <i_m_Source_File_Index>  (270) 
182

>  <s_m_subgroup_title>  (270) 
3C-like_protease_GHDDI_ligprep

>  <s_m_subgroupid>  (270) 
3C-like_protease_GHDDI_ligprep

>  <b_m_subgroup_collapsed>  (270) 
0

$$$$
13735
     RDKit          2D

 65 68  0  0  1  0  0  0  0  0999 V2000
    7.1139    5.7689    0.0000 C   0  0  0  0  0  0  0  0  0  0  0  0
    5.6257    5.9569    0.0000 C   0  0  0  0  0  0  0  0  0  0  0  0
    5.0444    7.3397    0.0000 O   0  0  0  0  0  0  0  0  0  0  0  0
    4.7188    4.7621    0.0000 C   0  0  0  0  0  0  0  0  0  0  0  0
    3.2306    4.9501    0.0000 N   0  0  0  0  0  0  0  0  0  0  0  0
    2.3237    3.7554    0.0000 C   0  0  0  0  0  0  0  0  0  0  0  0
    2.9049    2.3726    0.0000 O   0  0  0  0  0  0  0  0  0  0  0  0
    0.8355    3.9434    0.0000 C   0  0  0  0  0  0  0  0  0  0  0  0
   -0.0714    2.7486    0.0000 C   0  0  0  0  0  0  0  0  0  0  0  0
    0.5098    1.3658    0.0000 O   0  0  0  0  0  0  0  0  0  0  0  0
   -1.5596    2.9366    0.0000 C   0  0  0  0  0  0  0  0  0  0  0  0
   -2.1408    4.3194    0.0000 O   0  0  0  0  0  0  0  0  0  0  0  0
   -2.4665    1.7419    0.0000 N   0  0  0  0  0  0  0  0  0  0  0  0
   -3.9547    1.9299    0.0000 C   0  0  0  0  0  0  0  0  0  0  0  0
   -4.5359    3.3127    0.0000 C   0  0  0  0  0  0  0  0  0  0  0  0
   -3.6290    4.5075    0.0000 C   0  0  0  0  0  0  0  0  0  0  0  0
   -6.0241    3.5007    0.0000 O   0  0  0  0  0  0  0  0  0  0  0  0
   -4.8616    0.7351    0.0000 C   0  0  0  0  0  0  0  0  0  0  0  0
   -6.3498    0.9231    0.0000 O   0  0  0  0  0  0  0  0  0  0  0  0
   -4.2803   -0.6477    0.0000 N   0  0  0  0  0  0  0  0  0  0  0  0
   -5.1873   -1.8425    0.0000 C   0  0  0  0  0  0  0  0  0  0  0  0
   -4.6060   -3.2253    0.0000 C   0  0  0  0  0  0  0  0  0  0  0  0
   -3.1178   -3.4133    0.0000 C   0  0  0  0  0  0  0  0  0  0  0  0
   -2.5366   -4.7961    0.0000 C   0  0  0  0  0  0  0  0  0  0  0  0
   -1.0484   -4.9841    0.0000 C   0  0  0  0  0  0  0  0  0  0  0  0
   -0.1415   -3.7894    0.0000 C   0  0  0  0  0  0  0  0  0  0  0  0
   -0.7227   -2.4065    0.0000 C   0  0  0  0  0  0  0  0  0  0  0  0
   -2.2109   -2.2185    0.0000 C   0  0  0  0  0  0  0  0  0  0  0  0
   -6.6754   -1.6544    0.0000 C   0  0  0  0  0  0  0  0  0  0  0  0
   -7.5823   -2.8492    0.0000 O   0  0  0  0  0  0  0  0  0  0  0  0
   -7.2567   -0.2716    0.0000 N   0  0  0  0  0  0  0  0  0  0  0  0
   -8.7448   -0.0836    0.0000 C   0  0  0  0  0  0  0  0  0  0  0  0
   -9.3261    1.2992    0.0000 C   0  0  0  0  0  0  0  0  0  0  0  0
  -10.8143    1.4872    0.0000 C   0  0  0  0  0  0  0  0  0  0  0  0
  -11.7212    0.2924    0.0000 C   0  0  0  0  0  0  0  0  0  0  0  0
  -11.1399   -1.0904    0.0000 C   0  0  0  0  0  0  0  0  0  0  0  0
   -9.6518   -1.2784    0.0000 C   0  0  0  0  0  0  0  0  0  0  0  0
   -9.0705   -2.6612    0.0000 Cl  0  0  0  0  0  0  0  0  0  0  0  0
  -13.2093    0.4805    0.0000 N   0  0  0  0  0  0  0  0  0  0  0  0
  -14.1163   -0.7143    0.0000 O   0  0  0  0  0  0  0  0  0  0  0  0
  -13.7906    1.8633    0.0000 O   0  0  0  0  0  0  0  0  0  0  0  0
    5.3000    3.3793    0.0000 C   0  0  0  0  0  0  0  0  0  0  0  0
    4.3931    2.1845    0.0000 O   0  0  0  0  0  0  0  0  0  0  0  0
    6.7882    3.1913    0.0000 N   0  0  0  0  0  0  0  0  0  0  0  0
    7.3694    1.8085    0.0000 C   0  0  0  0  0  0  0  0  0  0  0  0
    8.8576    1.6205    0.0000 C   0  0  0  0  0  0  0  0  0  0  0  0
    9.4389    0.2377    0.0000 C   0  0  0  0  0  0  0  0  0  0  0  0
    8.5319   -0.9571    0.0000 C   0  0  0  0  0  0  0  0  0  0  0  0
    9.1132   -2.3399    0.0000 C   0  0  0  0  0  0  0  0  0  0  0  0
   10.6014   -2.5280    0.0000 C   0  0  0  0  0  0  0  0  0  0  0  0
   11.5083   -1.3332    0.0000 C   0  0  0  0  0  0  0  0  0  0  0  0
   10.9270    0.0496    0.0000 C   0  0  0  0  0  0  0  0  0  0  0  0
    6.4625    0.6137    0.0000 C   0  0  0  0  0  0  0  0  0  0  0  0
    4.9743    0.8017    0.0000 O   0  0  0  0  0  0  0  0  0  0  0  0
    7.0438   -0.7691    0.0000 N   0  0  0  0  0  0  0  0  0  0  0  0
    6.1368   -1.9639    0.0000 C   0  0  0  0  0  0  0  0  0  0  0  0
    4.6487   -1.7759    0.0000 C   0  0  0  0  0  0  0  0  0  0  0  0
    3.7418   -2.9706    0.0000 C   0  0  0  0  0  0  0  0  0  0  0  0
    4.3230   -4.3534    0.0000 C   0  0  0  0  0  0  0  0  0  0  0  0
    5.8112   -4.5415    0.0000 C   0  0  0  0  0  0  0  0  0  0  0  0
    6.7181   -3.3467    0.0000 C   0  0  0  0  0  0  0  0  0  0  0  0
    8.2063   -3.5347    0.0000 Cl  0  0  0  0  0  0  0  0  0  0  0  0
    3.4161   -5.5482    0.0000 N   0  0  0  0  0  0  0  0  0  0  0  0
    3.9973   -6.9310    0.0000 O   0  0  0  0  0  0  0  0  0  0  0  0
    1.9279   -5.3602    0.0000 O   0  0  0  0  0  0  0  0  0  0  0  0
  1  2  1  0
  2  3  1  0
  2  4  1  0
  4  5  1  0
  4 42  1  0
  5  6  1  0
  6  7  2  0
  6  8  1  0
  8  9  1  0
  9 10  1  0
  9 11  1  0
 11 12  2  0
 11 13  1  0
 13 14  1  0
 14 15  1  0
 14 18  1  0
 15 16  1  0
 15 17  1  0
 18 19  2  0
 18 20  1  0
 20 21  1  0
 21 22  1  0
 21 29  1  0
 22 23  1  0
 23 24  2  0
 23 28  1  0
 24 25  1  0
 25 26  2  0
 26 27  1  0
 27 28  2  0
 29 30  2  0
 29 31  1  0
 31 32  1  0
 32 33  2  0
 32 37  1  0
 33 34  1  0
 34 35  2  0
 35 36  1  0
 35 39  1  0
 36 37  2  0
 37 38  1  0
 39 40  2  0
 39 41  1  0
 42 43  2  0
 42 44  1  0
 44 45  1  0
 45 46  1  0
 45 53  1  0
 46 47  1  0
 47 48  2  0
 47 52  1  0
 48 49  1  0
 49 50  2  0
 50 51  1  0
 51 52  2  0
 53 54  2  0
 53 55  1  0
 55 56  1  0
 56 57  2  0
 56 61  1  0
 57 58  1  0
 58 59  2  0
 59 60  1  0
 59 63  1  0
 60 61  2  0
 61 62  1  0
 63 64  2  0
 63 65  1  0
M  CHG  4  39   1  41  -1  63   1  65  -1
M  END
>  <s_m_entry_id>  (271) 
564

>  <s_m_entry_name>  (271) 
3C-like_protease_GHDDI_ligprep.183

>  <s_m_Source_Path>  (271) 
/home/jgilaber/drug_learning/drug_learning/datasets/SAR1/GHDDI

>  <s_m_Source_File>  (271) 
3C-like_protease_GHDDI_ligprep.sdf

>  <i_m_Source_File_Index>  (271) 
183

>  <s_m_subgroup_title>  (271) 
3C-like_protease_GHDDI_ligprep

>  <s_m_subgroupid>  (271) 
3C-like_protease_GHDDI_ligprep

>  <b_m_subgroup_collapsed>  (271) 
0

$$$$
13736
     RDKit          2D

 56 59  0  0  1  0  0  0  0  0999 V2000
   -7.3713    2.7278    0.0000 C   0  0  0  0  0  0  0  0  0  0  0  0
   -6.2971    3.7747    0.0000 C   0  0  0  0  0  0  0  0  0  0  0  0
   -6.6666    5.2285    0.0000 C   0  0  0  0  0  0  0  0  0  0  0  0
   -4.8533    3.3679    0.0000 C   0  0  0  0  0  0  0  0  0  0  0  0
   -3.7791    4.4148    0.0000 N   0  0  0  0  0  0  0  0  0  0  0  0
   -2.3353    4.0080    0.0000 C   0  0  0  0  0  0  0  0  0  0  0  0
   -1.9657    2.5542    0.0000 O   0  0  0  0  0  0  0  0  0  0  0  0
   -1.2611    5.0549    0.0000 C   0  0  0  0  0  0  0  0  0  0  0  0
    0.1827    4.6481    0.0000 C   0  0  0  0  0  0  0  0  0  0  0  0
    1.2569    5.6950    0.0000 C   0  0  0  0  0  0  0  0  0  0  0  0
    0.8873    7.1488    0.0000 C   0  0  0  0  0  0  0  0  0  0  0  0
   -0.5564    7.5556    0.0000 C   0  0  0  0  0  0  0  0  0  0  0  0
   -1.6306    6.5087    0.0000 C   0  0  0  0  0  0  0  0  0  0  0  0
   -4.4837    1.9141    0.0000 C   0  0  0  0  0  0  0  0  0  0  0  0
   -3.0400    1.5073    0.0000 O   0  0  0  0  0  0  0  0  0  0  0  0
   -5.5579    0.8672    0.0000 N   0  0  0  0  0  0  0  0  0  0  0  0
   -5.1884   -0.5865    0.0000 C   0  0  0  0  0  0  0  0  0  0  0  0
   -6.2626   -1.6335    0.0000 C   0  0  0  0  0  0  0  0  0  0  0  0
   -5.8930   -3.0872    0.0000 C   0  0  0  0  0  0  0  0  0  0  0  0
   -6.9672   -4.1342    0.0000 C   0  0  0  0  0  0  0  0  0  0  0  0
   -6.5977   -5.5879    0.0000 C   0  0  0  0  0  0  0  0  0  0  0  0
   -5.1539   -5.9948    0.0000 C   0  0  0  0  0  0  0  0  0  0  0  0
   -4.7843   -7.4485    0.0000 F   0  0  0  0  0  0  0  0  0  0  0  0
   -4.0797   -4.9478    0.0000 C   0  0  0  0  0  0  0  0  0  0  0  0
   -4.4493   -3.4941    0.0000 C   0  0  0  0  0  0  0  0  0  0  0  0
   -3.7446   -0.9934    0.0000 C   0  0  0  0  0  0  0  0  0  0  0  0
   -2.6704    0.0536    0.0000 O   0  0  0  0  0  0  0  0  0  0  0  0
   -3.3750   -2.4471    0.0000 N   0  0  0  0  0  0  0  0  0  0  0  0
   -1.9313   -2.8540    0.0000 C   0  0  0  0  0  0  0  0  0  0  0  0
   -1.5617   -4.3077    0.0000 C   0  0  0  0  0  0  0  0  0  0  0  0
   -0.1179   -4.7146    0.0000 C   0  0  0  0  0  0  0  0  0  0  0  0
   -2.6359   -5.3547    0.0000 O   0  0  0  0  0  0  0  0  0  0  0  0
   -0.8571   -1.8070    0.0000 C   0  0  0  0  0  0  0  0  0  0  0  0
   -1.2266   -0.3533    0.0000 O   0  0  0  0  0  0  0  0  0  0  0  0
    0.5867   -2.2139    0.0000 N   0  0  0  0  0  0  0  0  0  0  0  0
    1.6609   -1.1669    0.0000 C   0  0  0  0  0  0  0  0  0  0  0  0
    1.2914    0.2868    0.0000 C   0  0  0  0  0  0  0  0  0  0  0  0
    2.3656    1.3338    0.0000 C   0  0  0  0  0  0  0  0  0  0  0  0
    1.9960    2.7875    0.0000 C   0  0  0  0  0  0  0  0  0  0  0  0
    3.0702    3.8344    0.0000 C   0  0  0  0  0  0  0  0  0  0  0  0
    4.5140    3.4276    0.0000 C   0  0  0  0  0  0  0  0  0  0  0  0
    4.8836    1.9739    0.0000 C   0  0  0  0  0  0  0  0  0  0  0  0
    3.8094    0.9269    0.0000 C   0  0  0  0  0  0  0  0  0  0  0  0
    3.1047   -1.5738    0.0000 C   0  0  0  0  0  0  0  0  0  0  0  0
    3.4743   -3.0275    0.0000 O   0  0  0  0  0  0  0  0  0  0  0  0
    4.1789   -0.5268    0.0000 N   0  0  0  0  0  0  0  0  0  0  0  0
    5.6227   -0.9337    0.0000 C   0  0  0  0  0  0  0  0  0  0  0  0
    5.9923   -2.3874    0.0000 C   0  0  0  0  0  0  0  0  0  0  0  0
    7.4360   -2.7943    0.0000 C   0  0  0  0  0  0  0  0  0  0  0  0
    8.5103   -1.7473    0.0000 C   0  0  0  0  0  0  0  0  0  0  0  0
    8.1407   -0.2936    0.0000 C   0  0  0  0  0  0  0  0  0  0  0  0
    6.6969    0.1133    0.0000 C   0  0  0  0  0  0  0  0  0  0  0  0
    6.3274    1.5670    0.0000 Cl  0  0  0  0  0  0  0  0  0  0  0  0
    9.9540   -2.1542    0.0000 N   0  0  0  0  0  0  0  0  0  0  0  0
   11.0282   -1.1072    0.0000 O   0  0  0  0  0  0  0  0  0  0  0  0
   10.3236   -3.6079    0.0000 O   0  0  0  0  0  0  0  0  0  0  0  0
  1  2  1  0
  2  3  1  0
  2  4  1  0
  4  5  1  0
  4 14  1  0
  5  6  1  0
  6  7  2  0
  6  8  1  0
  8  9  2  0
  8 13  1  0
  9 10  1  0
 10 11  2  0
 11 12  1  0
 12 13  2  0
 14 15  2  0
 14 16  1  0
 16 17  1  0
 17 18  1  0
 17 26  1  0
 18 19  1  0
 19 20  2  0
 19 25  1  0
 20 21  1  0
 21 22  2  0
 22 23  1  0
 22 24  1  0
 24 25  2  0
 26 27  2  0
 26 28  1  0
 28 29  1  0
 29 30  1  0
 29 33  1  0
 30 31  1  0
 30 32  1  0
 33 34  2  0
 33 35  1  0
 35 36  1  0
 36 37  1  0
 36 44  1  0
 37 38  1  0
 38 39  2  0
 38 43  1  0
 39 40  1  0
 40 41  2  0
 41 42  1  0
 42 43  2  0
 44 45  2  0
 44 46  1  0
 46 47  1  0
 47 48  2  0
 47 52  1  0
 48 49  1  0
 49 50  2  0
 50 51  1  0
 50 54  1  0
 51 52  2  0
 52 53  1  0
 54 55  2  0
 54 56  1  0
M  CHG  2  54   1  56  -1
M  END
>  <s_m_entry_id>  (272) 
566

>  <s_m_entry_name>  (272) 
3C-like_protease_GHDDI_ligprep.185

>  <s_m_Source_Path>  (272) 
/home/jgilaber/drug_learning/drug_learning/datasets/SAR1/GHDDI

>  <s_m_Source_File>  (272) 
3C-like_protease_GHDDI_ligprep.sdf

>  <i_m_Source_File_Index>  (272) 
185

>  <s_m_subgroup_title>  (272) 
3C-like_protease_GHDDI_ligprep

>  <s_m_subgroupid>  (272) 
3C-like_protease_GHDDI_ligprep

>  <b_m_subgroup_collapsed>  (272) 
0

$$$$
13737
     RDKit          2D

 64 67  0  0  1  0  0  0  0  0999 V2000
    7.1201    5.7923    0.0000 C   0  0  0  0  0  0  0  0  0  0  0  0
    5.6319    5.9799    0.0000 C   0  0  0  0  0  0  0  0  0  0  0  0
    5.0502    7.3625    0.0000 O   0  0  0  0  0  0  0  0  0  0  0  0
    4.7253    4.7849    0.0000 C   0  0  0  0  0  0  0  0  0  0  0  0
    3.2371    4.9724    0.0000 N   0  0  0  0  0  0  0  0  0  0  0  0
    2.3305    3.7774    0.0000 C   0  0  0  0  0  0  0  0  0  0  0  0
    2.9122    2.3948    0.0000 O   0  0  0  0  0  0  0  0  0  0  0  0
    0.8423    3.9650    0.0000 C   0  0  0  0  0  0  0  0  0  0  0  0
   -0.0643    2.7699    0.0000 C   0  0  0  0  0  0  0  0  0  0  0  0
   -1.5525    2.9575    0.0000 C   0  0  0  0  0  0  0  0  0  0  0  0
   -2.1341    4.3402    0.0000 O   0  0  0  0  0  0  0  0  0  0  0  0
   -2.4590    1.7625    0.0000 N   0  0  0  0  0  0  0  0  0  0  0  0
   -3.9473    1.9501    0.0000 C   0  0  0  0  0  0  0  0  0  0  0  0
   -4.5289    3.3327    0.0000 C   0  0  0  0  0  0  0  0  0  0  0  0
   -3.6224    4.5278    0.0000 C   0  0  0  0  0  0  0  0  0  0  0  0
   -6.0171    3.5203    0.0000 O   0  0  0  0  0  0  0  0  0  0  0  0
   -4.8538    0.7550    0.0000 C   0  0  0  0  0  0  0  0  0  0  0  0
   -6.3421    0.9426    0.0000 O   0  0  0  0  0  0  0  0  0  0  0  0
   -4.2722   -0.6276    0.0000 N   0  0  0  0  0  0  0  0  0  0  0  0
   -5.1788   -1.8226    0.0000 C   0  0  0  0  0  0  0  0  0  0  0  0
   -4.5971   -3.2053    0.0000 C   0  0  0  0  0  0  0  0  0  0  0  0
   -3.1089   -3.3929    0.0000 C   0  0  0  0  0  0  0  0  0  0  0  0
   -2.5272   -4.7755    0.0000 C   0  0  0  0  0  0  0  0  0  0  0  0
   -1.0390   -4.9631    0.0000 C   0  0  0  0  0  0  0  0  0  0  0  0
   -0.1324   -3.7681    0.0000 C   0  0  0  0  0  0  0  0  0  0  0  0
   -0.7141   -2.3854    0.0000 C   0  0  0  0  0  0  0  0  0  0  0  0
   -2.2023   -2.1978    0.0000 C   0  0  0  0  0  0  0  0  0  0  0  0
   -6.6670   -1.6351    0.0000 C   0  0  0  0  0  0  0  0  0  0  0  0
   -7.5735   -2.8301    0.0000 O   0  0  0  0  0  0  0  0  0  0  0  0
   -7.2486   -0.2524    0.0000 N   0  0  0  0  0  0  0  0  0  0  0  0
   -8.7369   -0.0648    0.0000 C   0  0  0  0  0  0  0  0  0  0  0  0
   -9.3185    1.3178    0.0000 C   0  0  0  0  0  0  0  0  0  0  0  0
  -10.8067    1.5054    0.0000 C   0  0  0  0  0  0  0  0  0  0  0  0
  -11.7133    0.3103    0.0000 C   0  0  0  0  0  0  0  0  0  0  0  0
  -11.1316   -1.0723    0.0000 C   0  0  0  0  0  0  0  0  0  0  0  0
   -9.6434   -1.2599    0.0000 C   0  0  0  0  0  0  0  0  0  0  0  0
   -9.0618   -2.6425    0.0000 Cl  0  0  0  0  0  0  0  0  0  0  0  0
  -13.2015    0.4979    0.0000 N   0  0  0  0  0  0  0  0  0  0  0  0
  -14.1081   -0.6971    0.0000 O   0  0  0  0  0  0  0  0  0  0  0  0
  -13.7832    1.8806    0.0000 O   0  0  0  0  0  0  0  0  0  0  0  0
    5.3070    3.4022    0.0000 C   0  0  0  0  0  0  0  0  0  0  0  0
    4.4004    2.2072    0.0000 O   0  0  0  0  0  0  0  0  0  0  0  0
    6.7952    3.2146    0.0000 N   0  0  0  0  0  0  0  0  0  0  0  0
    7.3769    1.8320    0.0000 C   0  0  0  0  0  0  0  0  0  0  0  0
    8.8651    1.6444    0.0000 C   0  0  0  0  0  0  0  0  0  0  0  0
    9.4467    0.2618    0.0000 C   0  0  0  0  0  0  0  0  0  0  0  0
    8.5402   -0.9333    0.0000 C   0  0  0  0  0  0  0  0  0  0  0  0
    9.1218   -2.3159    0.0000 C   0  0  0  0  0  0  0  0  0  0  0  0
   10.6101   -2.5035    0.0000 C   0  0  0  0  0  0  0  0  0  0  0  0
   11.5166   -1.3085    0.0000 C   0  0  0  0  0  0  0  0  0  0  0  0
   10.9350    0.0742    0.0000 C   0  0  0  0  0  0  0  0  0  0  0  0
    6.4703    0.6369    0.0000 C   0  0  0  0  0  0  0  0  0  0  0  0
    4.9821    0.8245    0.0000 O   0  0  0  0  0  0  0  0  0  0  0  0
    7.0520   -0.7457    0.0000 N   0  0  0  0  0  0  0  0  0  0  0  0
    6.1454   -1.9407    0.0000 C   0  0  0  0  0  0  0  0  0  0  0  0
    4.6572   -1.7531    0.0000 C   0  0  0  0  0  0  0  0  0  0  0  0
    3.7506   -2.9482    0.0000 C   0  0  0  0  0  0  0  0  0  0  0  0
    4.3322   -4.3308    0.0000 C   0  0  0  0  0  0  0  0  0  0  0  0
    5.8205   -4.5184    0.0000 C   0  0  0  0  0  0  0  0  0  0  0  0
    6.7270   -3.3234    0.0000 C   0  0  0  0  0  0  0  0  0  0  0  0
    8.2153   -3.5110    0.0000 Cl  0  0  0  0  0  0  0  0  0  0  0  0
    3.4257   -5.5259    0.0000 N   0  0  0  0  0  0  0  0  0  0  0  0
    4.0073   -6.9085    0.0000 O   0  0  0  0  0  0  0  0  0  0  0  0
    1.9375   -5.3383    0.0000 O   0  0  0  0  0  0  0  0  0  0  0  0
  1  2  1  0
  2  3  1  0
  2  4  1  0
  4  5  1  0
  4 41  1  0
  5  6  1  0
  6  7  2  0
  6  8  1  0
  8  9  1  0
  9 10  1  0
 10 11  2  0
 10 12  1  0
 12 13  1  0
 13 14  1  0
 13 17  1  0
 14 15  1  0
 14 16  1  0
 17 18  2  0
 17 19  1  0
 19 20  1  0
 20 21  1  0
 20 28  1  0
 21 22  1  0
 22 23  2  0
 22 27  1  0
 23 24  1  0
 24 25  2  0
 25 26  1  0
 26 27  2  0
 28 29  2  0
 28 30  1  0
 30 31  1  0
 31 32  2  0
 31 36  1  0
 32 33  1  0
 33 34  2  0
 34 35  1  0
 34 38  1  0
 35 36  2  0
 36 37  1  0
 38 39  2  0
 38 40  1  0
 41 42  2  0
 41 43  1  0
 43 44  1  0
 44 45  1  0
 44 52  1  0
 45 46  1  0
 46 47  2  0
 46 51  1  0
 47 48  1  0
 48 49  2  0
 49 50  1  0
 50 51  2  0
 52 53  2  0
 52 54  1  0
 54 55  1  0
 55 56  2  0
 55 60  1  0
 56 57  1  0
 57 58  2  0
 58 59  1  0
 58 62  1  0
 59 60  2  0
 60 61  1  0
 62 63  2  0
 62 64  1  0
M  CHG  4  38   1  40  -1  62   1  64  -1
M  END
>  <s_m_entry_id>  (273) 
567

>  <s_m_entry_name>  (273) 
3C-like_protease_GHDDI_ligprep.186

>  <s_m_Source_Path>  (273) 
/home/jgilaber/drug_learning/drug_learning/datasets/SAR1/GHDDI

>  <s_m_Source_File>  (273) 
3C-like_protease_GHDDI_ligprep.sdf

>  <i_m_Source_File_Index>  (273) 
186

>  <s_m_subgroup_title>  (273) 
3C-like_protease_GHDDI_ligprep

>  <s_m_subgroupid>  (273) 
3C-like_protease_GHDDI_ligprep

>  <b_m_subgroup_collapsed>  (273) 
0

$$$$
13738
     RDKit          2D

 37 41  0  0  1  0  0  0  0  0999 V2000
   -7.6269    2.0076    0.0000 C   0  0  0  0  0  0  0  0  0  0  0  0
   -6.4254    1.1097    0.0000 C   0  0  0  0  0  0  0  0  0  0  0  0
   -6.6022   -0.3798    0.0000 C   0  0  0  0  0  0  0  0  0  0  0  0
   -5.0470    1.7013    0.0000 N   0  0  0  0  0  0  0  0  0  0  0  0
   -3.8454    0.8033    0.0000 C   0  0  0  0  0  0  0  0  0  0  0  0
   -4.0223   -0.6862    0.0000 O   0  0  0  0  0  0  0  0  0  0  0  0
   -2.4670    1.3949    0.0000 C   0  0  0  0  0  0  0  0  0  0  0  0
   -1.2655    0.4970    0.0000 N   0  0  0  0  0  0  0  0  0  0  0  0
   -1.4423   -0.9925    0.0000 C   0  0  0  0  0  0  0  0  0  0  0  0
   -2.8207   -1.5841    0.0000 O   0  0  0  0  0  0  0  0  0  0  0  0
   -0.2408   -1.8905    0.0000 C   0  0  0  0  0  0  0  0  0  0  0  0
   -0.4177   -3.3800    0.0000 N   0  0  0  0  0  0  0  0  0  0  0  0
   -1.7267   -4.1125    0.0000 N   0  0  0  0  0  0  0  0  0  0  0  0
   -1.4346   -5.5837    0.0000 N   0  0  0  0  0  0  0  0  0  0  0  0
    0.0549   -5.7606    0.0000 C   0  0  0  0  0  0  0  0  0  0  0  0
    0.9202   -6.9859    0.0000 C   0  0  0  0  0  0  0  0  0  0  0  0
    2.4139   -6.8492    0.0000 C   0  0  0  0  0  0  0  0  0  0  0  0
    3.0424   -5.4872    0.0000 C   0  0  0  0  0  0  0  0  0  0  0  0
    2.1772   -4.2620    0.0000 C   0  0  0  0  0  0  0  0  0  0  0  0
    0.6834   -4.3986    0.0000 C   0  0  0  0  0  0  0  0  0  0  0  0
    0.1129    1.0886    0.0000 C   0  0  0  0  0  0  0  0  0  0  0  0
    1.3145    0.1906    0.0000 C   0  0  0  0  0  0  0  0  0  0  0  0
    2.6929    0.7822    0.0000 C   0  0  0  0  0  0  0  0  0  0  0  0
    2.8698    2.2718    0.0000 C   0  0  0  0  0  0  0  0  0  0  0  0
    4.2482    2.8634    0.0000 N   0  0  0  0  0  0  0  0  0  0  0  0
    5.4497    1.9654    0.0000 C   0  0  0  0  0  0  0  0  0  0  0  0
    5.2728    0.4759    0.0000 O   0  0  0  0  0  0  0  0  0  0  0  0
    6.8281    2.5570    0.0000 C   0  0  0  0  0  0  0  0  0  0  0  0
    7.7261    3.7586    0.0000 C   0  0  0  0  0  0  0  0  0  0  0  0
    8.3177    2.3801    0.0000 C   0  0  0  0  0  0  0  0  0  0  0  0
    1.6682    3.1697    0.0000 C   0  0  0  0  0  0  0  0  0  0  0  0
    0.2898    2.5781    0.0000 C   0  0  0  0  0  0  0  0  0  0  0  0
   -2.2901    2.8845    0.0000 C   0  0  0  0  0  0  0  0  0  0  0  0
   -3.3912    3.9031    0.0000 C   0  0  0  0  0  0  0  0  0  0  0  0
   -2.7627    5.2651    0.0000 C   0  0  0  0  0  0  0  0  0  0  0  0
   -1.2732    5.0882    0.0000 S   0  0  0  0  0  0  0  0  0  0  0  0
   -0.9811    3.6169    0.0000 C   0  0  0  0  0  0  0  0  0  0  0  0
  1  2  1  0
  2  3  1  0
  2  4  1  0
  4  5  1  0
  5  6  2  0
  5  7  1  0
  7  8  1  0
  7 33  1  0
  8  9  1  0
  8 21  1  0
  9 10  2  0
  9 11  1  0
 11 12  1  0
 12 13  1  0
 12 20  1  0
 13 14  2  0
 14 15  1  0
 15 16  1  0
 15 20  2  0
 16 17  2  0
 17 18  1  0
 18 19  2  0
 19 20  1  0
 21 22  2  0
 21 32  1  0
 22 23  1  0
 23 24  2  0
 24 25  1  0
 24 31  1  0
 25 26  1  0
 26 27  2  0
 26 28  1  0
 28 29  1  0
 28 30  1  0
 29 30  1  0
 31 32  2  0
 33 34  1  0
 33 37  2  0
 34 35  2  0
 35 36  1  0
 36 37  1  0
M  END
>  <s_m_entry_id>  (274) 
569

>  <s_m_entry_name>  (274) 
3C-like_protease_GHDDI_ligprep.188

>  <s_m_Source_Path>  (274) 
/home/jgilaber/drug_learning/drug_learning/datasets/SAR1/GHDDI

>  <s_m_Source_File>  (274) 
3C-like_protease_GHDDI_ligprep.sdf

>  <i_m_Source_File_Index>  (274) 
188

>  <s_m_subgroup_title>  (274) 
3C-like_protease_GHDDI_ligprep

>  <s_m_subgroupid>  (274) 
3C-like_protease_GHDDI_ligprep

>  <b_m_subgroup_collapsed>  (274) 
0

$$$$
13739
     RDKit          2D

 43 47  0  0  1  0  0  0  0  0999 V2000
    8.1094    4.2666    0.0000 C   0  0  0  0  0  0  0  0  0  0  0  0
    6.6638    4.6669    0.0000 C   0  0  0  0  0  0  0  0  0  0  0  0
    6.2877    6.1190    0.0000 C   0  0  0  0  0  0  0  0  0  0  0  0
    5.5944    3.6151    0.0000 C   0  0  0  0  0  0  0  0  0  0  0  0
    5.9705    2.1631    0.0000 O   0  0  0  0  0  0  0  0  0  0  0  0
    4.1488    4.0155    0.0000 N   0  0  0  0  0  0  0  0  0  0  0  0
    3.0793    2.9637    0.0000 C   0  0  0  0  0  0  0  0  0  0  0  0
    3.4554    1.5116    0.0000 C   0  0  0  0  0  0  0  0  0  0  0  0
    2.3859    0.4599    0.0000 C   0  0  0  0  0  0  0  0  0  0  0  0
    0.9403    0.8602    0.0000 C   0  0  0  0  0  0  0  0  0  0  0  0
    0.5642    2.3123    0.0000 C   0  0  0  0  0  0  0  0  0  0  0  0
    1.6337    3.3640    0.0000 C   0  0  0  0  0  0  0  0  0  0  0  0
   -0.1292   -0.1916    0.0000 N   0  0  0  0  0  0  0  0  0  0  0  0
   -1.5748    0.2088    0.0000 C   0  0  0  0  0  0  0  0  0  0  0  0
   -2.6443   -0.8430    0.0000 C   0  0  0  0  0  0  0  0  0  0  0  0
   -2.2682   -2.2951    0.0000 O   0  0  0  0  0  0  0  0  0  0  0  0
   -4.0899   -0.4427    0.0000 N   0  0  0  0  0  0  0  0  0  0  0  0
   -5.1593   -1.4944    0.0000 C   0  0  0  0  0  0  0  0  0  0  0  0
   -6.6049   -1.0941    0.0000 C   0  0  0  0  0  0  0  0  0  0  0  0
   -6.9810    0.3580    0.0000 C   0  0  0  0  0  0  0  0  0  0  0  0
   -8.4266    0.7583    0.0000 C   0  0  0  0  0  0  0  0  0  0  0  0
   -9.4961   -0.2935    0.0000 C   0  0  0  0  0  0  0  0  0  0  0  0
   -9.1200   -1.7456    0.0000 N   0  0  0  0  0  0  0  0  0  0  0  0
   -7.6744   -2.1459    0.0000 C   0  0  0  0  0  0  0  0  0  0  0  0
   -1.9509    1.6608    0.0000 C   0  0  0  0  0  0  0  0  0  0  0  0
   -0.8814    2.7126    0.0000 C   0  0  0  0  0  0  0  0  0  0  0  0
   -1.2575    4.1647    0.0000 C   0  0  0  0  0  0  0  0  0  0  0  0
   -2.7031    4.5650    0.0000 C   0  0  0  0  0  0  0  0  0  0  0  0
   -3.7726    3.5132    0.0000 C   0  0  0  0  0  0  0  0  0  0  0  0
   -5.2182    3.9136    0.0000 F   0  0  0  0  0  0  0  0  0  0  0  0
   -3.3965    2.0612    0.0000 C   0  0  0  0  0  0  0  0  0  0  0  0
    0.2469   -1.6437    0.0000 C   0  0  0  0  0  0  0  0  0  0  0  0
   -0.8226   -2.6954    0.0000 O   0  0  0  0  0  0  0  0  0  0  0  0
    1.6925   -2.0440    0.0000 C   0  0  0  0  0  0  0  0  0  0  0  0
    2.0686   -3.4961    0.0000 N   0  0  0  0  0  0  0  0  0  0  0  0
    1.1149   -4.6538    0.0000 N   0  0  0  0  0  0  0  0  0  0  0  0
    1.9214   -5.9186    0.0000 N   0  0  0  0  0  0  0  0  0  0  0  0
    3.3734   -5.5425    0.0000 C   0  0  0  0  0  0  0  0  0  0  0  0
    4.6246   -6.3700    0.0000 C   0  0  0  0  0  0  0  0  0  0  0  0
    5.9667   -5.7002    0.0000 C   0  0  0  0  0  0  0  0  0  0  0  0
    6.0577   -4.2029    0.0000 C   0  0  0  0  0  0  0  0  0  0  0  0
    4.8066   -3.3755    0.0000 C   0  0  0  0  0  0  0  0  0  0  0  0
    3.4645   -4.0453    0.0000 C   0  0  0  0  0  0  0  0  0  0  0  0
  1  2  1  0
  2  3  1  0
  2  4  1  0
  4  5  2  0
  4  6  1  0
  6  7  1  0
  7  8  2  0
  7 12  1  0
  8  9  1  0
  9 10  2  0
 10 11  1  0
 10 13  1  0
 11 12  2  0
 13 14  1  0
 13 32  1  0
 14 15  1  0
 14 25  1  0
 15 16  2  0
 15 17  1  0
 17 18  1  0
 18 19  1  0
 19 20  2  0
 19 24  1  0
 20 21  1  0
 21 22  2  0
 22 23  1  0
 23 24  2  0
 25 26  2  0
 25 31  1  0
 26 27  1  0
 27 28  2  0
 28 29  1  0
 29 30  1  0
 29 31  2  0
 32 33  2  0
 32 34  1  0
 34 35  1  0
 35 36  1  0
 35 43  1  0
 36 37  2  0
 37 38  1  0
 38 39  1  0
 38 43  2  0
 39 40  2  0
 40 41  1  0
 41 42  2  0
 42 43  1  0
M  END
>  <s_m_entry_id>  (275) 
571

>  <s_m_entry_name>  (275) 
3C-like_protease_GHDDI_ligprep.190

>  <s_m_Source_Path>  (275) 
/home/jgilaber/drug_learning/drug_learning/datasets/SAR1/GHDDI

>  <s_m_Source_File>  (275) 
3C-like_protease_GHDDI_ligprep.sdf

>  <i_m_Source_File_Index>  (275) 
190

>  <s_m_subgroup_title>  (275) 
3C-like_protease_GHDDI_ligprep

>  <s_m_subgroupid>  (275) 
3C-like_protease_GHDDI_ligprep

>  <b_m_subgroup_collapsed>  (275) 
0

$$$$
13740
     RDKit          2D

 33 37  0  0  1  0  0  0  0  0999 V2000
    3.1832    2.3994    0.0000 C   0  0  0  0  0  0  0  0  0  0  0  0
    3.3635    0.9102    0.0000 C   0  0  0  0  0  0  0  0  0  0  0  0
    4.7433    0.3218    0.0000 N   0  0  0  0  0  0  0  0  0  0  0  0
    5.0782   -1.1403    0.0000 C   0  0  0  0  0  0  0  0  0  0  0  0
    4.0922   -2.2707    0.0000 C   0  0  0  0  0  0  0  0  0  0  0  0
    2.6203   -1.9820    0.0000 C   0  0  0  0  0  0  0  0  0  0  0  0
    1.6343   -3.1124    0.0000 C   0  0  0  0  0  0  0  0  0  0  0  0
    0.1623   -2.8237    0.0000 C   0  0  0  0  0  0  0  0  0  0  0  0
   -0.3236   -1.4046    0.0000 C   0  0  0  0  0  0  0  0  0  0  0  0
   -1.7956   -1.1159    0.0000 C   0  0  0  0  0  0  0  0  0  0  0  0
   -2.2816    0.3032    0.0000 C   0  0  0  0  0  0  0  0  0  0  0  0
   -3.7535    0.5919    0.0000 C   0  0  0  0  0  0  0  0  0  0  0  0
   -4.3851    1.9524    0.0000 N   0  0  0  0  0  0  0  0  0  0  0  0
   -3.6557    3.2631    0.0000 C   0  0  0  0  0  0  0  0  0  0  0  0
   -2.1559    3.2867    0.0000 C   0  0  0  0  0  0  0  0  0  0  0  0
   -5.8743    1.7721    0.0000 C   0  0  0  0  0  0  0  0  0  0  0  0
   -7.0047    2.7581    0.0000 C   0  0  0  0  0  0  0  0  0  0  0  0
   -8.4238    2.2721    0.0000 C   0  0  0  0  0  0  0  0  0  0  0  0
   -8.7125    0.8002    0.0000 C   0  0  0  0  0  0  0  0  0  0  0  0
   -7.5821   -0.1858    0.0000 C   0  0  0  0  0  0  0  0  0  0  0  0
   -6.1630    0.3001    0.0000 C   0  0  0  0  0  0  0  0  0  0  0  0
   -4.8523   -0.4293    0.0000 S   0  0  0  0  0  0  0  0  0  0  0  0
   -2.7816   -2.2463    0.0000 C   0  0  0  0  0  0  0  0  0  0  0  0
   -2.2956   -3.6654    0.0000 C   0  0  0  0  0  0  0  0  0  0  0  0
   -3.2816   -4.7958    0.0000 C   0  0  0  0  0  0  0  0  0  0  0  0
   -0.8237   -3.9541    0.0000 C   0  0  0  0  0  0  0  0  0  0  0  0
    6.5723   -1.2736    0.0000 S   0  0  0  0  0  0  0  0  0  0  0  0
    7.1607    0.1062    0.0000 C   0  0  0  0  0  0  0  0  0  0  0  0
    8.5798    0.5922    0.0000 C   0  0  0  0  0  0  0  0  0  0  0  0
    8.8685    2.0641    0.0000 C   0  0  0  0  0  0  0  0  0  0  0  0
    7.7381    3.0501    0.0000 C   0  0  0  0  0  0  0  0  0  0  0  0
    6.3190    2.5642    0.0000 C   0  0  0  0  0  0  0  0  0  0  0  0
    6.0303    1.0922    0.0000 C   0  0  0  0  0  0  0  0  0  0  0  0
  1  2  1  0
  2  3  1  0
  3  4  2  0
  3 33  1  0
  4  5  1  0
  4 27  1  0
  5  6  1  0
  6  7  2  0
  7  8  1  0
  8  9  2  0
  8 26  1  0
  9 10  1  0
 10 11  2  0
 10 23  1  0
 11 12  1  0
 12 13  2  0
 12 22  1  0
 13 14  1  0
 13 16  1  0
 14 15  1  0
 16 17  2  0
 16 21  1  0
 17 18  1  0
 18 19  2  0
 19 20  1  0
 20 21  2  0
 21 22  1  0
 23 24  1  0
 24 25  1  0
 24 26  1  0
 27 28  1  0
 28 29  1  0
 28 33  2  0
 29 30  2  0
 30 31  1  0
 31 32  2  0
 32 33  1  0
M  CHG  2   3   1  13   1
M  END
>  <s_m_entry_id>  (276) 
573

>  <s_m_entry_name>  (276) 
3C-like_protease_GHDDI_ligprep.192

>  <s_m_Source_Path>  (276) 
/home/jgilaber/drug_learning/drug_learning/datasets/SAR1/GHDDI

>  <s_m_Source_File>  (276) 
3C-like_protease_GHDDI_ligprep.sdf

>  <i_m_Source_File_Index>  (276) 
192

>  <s_m_subgroup_title>  (276) 
3C-like_protease_GHDDI_ligprep

>  <s_m_subgroupid>  (276) 
3C-like_protease_GHDDI_ligprep

>  <b_m_subgroup_collapsed>  (276) 
0

$$$$
13741
     RDKit          2D

 42 46  0  0  1  0  0  0  0  0999 V2000
   -9.7981   -1.3994    0.0000 C   0  0  0  0  0  0  0  0  0  0  0  0
   -9.1802   -0.0326    0.0000 C   0  0  0  0  0  0  0  0  0  0  0  0
   -8.5622    1.3341    0.0000 C   0  0  0  0  0  0  0  0  0  0  0  0
  -10.5470    0.5853    0.0000 C   0  0  0  0  0  0  0  0  0  0  0  0
   -7.8134   -0.6506    0.0000 O   0  0  0  0  0  0  0  0  0  0  0  0
   -6.5948    0.2241    0.0000 C   0  0  0  0  0  0  0  0  0  0  0  0
   -6.7431    1.7168    0.0000 O   0  0  0  0  0  0  0  0  0  0  0  0
   -5.2280   -0.3938    0.0000 C   0  0  0  0  0  0  0  0  0  0  0  0
   -4.0095    0.4809    0.0000 N   0  0  0  0  0  0  0  0  0  0  0  0
   -2.6427   -0.1371    0.0000 C   0  0  0  0  0  0  0  0  0  0  0  0
   -2.4944   -1.6297    0.0000 O   0  0  0  0  0  0  0  0  0  0  0  0
   -1.4241    0.7376    0.0000 C   0  0  0  0  0  0  0  0  0  0  0  0
   -0.0573    0.1197    0.0000 N   0  0  0  0  0  0  0  0  0  0  0  0
    0.0909   -1.3730    0.0000 C   0  0  0  0  0  0  0  0  0  0  0  0
   -1.1276   -2.2477    0.0000 O   0  0  0  0  0  0  0  0  0  0  0  0
    1.4577   -1.9909    0.0000 C   0  0  0  0  0  0  0  0  0  0  0  0
    1.6060   -3.4836    0.0000 N   0  0  0  0  0  0  0  0  0  0  0  0
    0.4855   -4.4809    0.0000 N   0  0  0  0  0  0  0  0  0  0  0  0
    1.0878   -5.8547    0.0000 N   0  0  0  0  0  0  0  0  0  0  0  0
    2.5804   -5.7064    0.0000 C   0  0  0  0  0  0  0  0  0  0  0  0
    3.6894   -6.7165    0.0000 C   0  0  0  0  0  0  0  0  0  0  0  0
    5.1186   -6.2612    0.0000 C   0  0  0  0  0  0  0  0  0  0  0  0
    5.4388   -4.7958    0.0000 C   0  0  0  0  0  0  0  0  0  0  0  0
    4.3299   -3.7857    0.0000 C   0  0  0  0  0  0  0  0  0  0  0  0
    2.9007   -4.2410    0.0000 C   0  0  0  0  0  0  0  0  0  0  0  0
    1.1613    0.9944    0.0000 C   0  0  0  0  0  0  0  0  0  0  0  0
    2.5280    0.3764    0.0000 C   0  0  0  0  0  0  0  0  0  0  0  0
    3.7466    1.2511    0.0000 C   0  0  0  0  0  0  0  0  0  0  0  0
    3.5984    2.7438    0.0000 C   0  0  0  0  0  0  0  0  0  0  0  0
    4.8169    3.6185    0.0000 N   0  0  0  0  0  0  0  0  0  0  0  0
    6.1837    3.0005    0.0000 C   0  0  0  0  0  0  0  0  0  0  0  0
    6.3320    1.5079    0.0000 O   0  0  0  0  0  0  0  0  0  0  0  0
    7.4023    3.8753    0.0000 C   0  0  0  0  0  0  0  0  0  0  0  0
    8.0202    5.2421    0.0000 C   0  0  0  0  0  0  0  0  0  0  0  0
    8.8949    4.0235    0.0000 C   0  0  0  0  0  0  0  0  0  0  0  0
    2.2316    3.3617    0.0000 C   0  0  0  0  0  0  0  0  0  0  0  0
    1.0130    2.4870    0.0000 C   0  0  0  0  0  0  0  0  0  0  0  0
   -1.5723    2.2303    0.0000 C   0  0  0  0  0  0  0  0  0  0  0  0
   -2.8671    2.9877    0.0000 C   0  0  0  0  0  0  0  0  0  0  0  0
   -2.5468    4.4531    0.0000 C   0  0  0  0  0  0  0  0  0  0  0  0
   -1.0541    4.6014    0.0000 S   0  0  0  0  0  0  0  0  0  0  0  0
   -0.4519    3.2276    0.0000 C   0  0  0  0  0  0  0  0  0  0  0  0
  1  2  1  0
  2  3  1  0
  2  4  1  0
  2  5  1  0
  5  6  1  0
  6  7  2  0
  6  8  1  0
  8  9  1  0
  9 10  1  0
 10 11  2  0
 10 12  1  0
 12 13  1  0
 12 38  1  0
 13 14  1  0
 13 26  1  0
 14 15  2  0
 14 16  1  0
 16 17  1  0
 17 18  1  0
 17 25  1  0
 18 19  2  0
 19 20  1  0
 20 21  1  0
 20 25  2  0
 21 22  2  0
 22 23  1  0
 23 24  2  0
 24 25  1  0
 26 27  2  0
 26 37  1  0
 27 28  1  0
 28 29  2  0
 29 30  1  0
 29 36  1  0
 30 31  1  0
 31 32  2  0
 31 33  1  0
 33 34  1  0
 33 35  1  0
 34 35  1  0
 36 37  2  0
 38 39  1  0
 38 42  2  0
 39 40  2  0
 40 41  1  0
 41 42  1  0
M  END
>  <s_m_entry_id>  (277) 
575

>  <s_m_entry_name>  (277) 
3C-like_protease_GHDDI_ligprep.194

>  <s_m_Source_Path>  (277) 
/home/jgilaber/drug_learning/drug_learning/datasets/SAR1/GHDDI

>  <s_m_Source_File>  (277) 
3C-like_protease_GHDDI_ligprep.sdf

>  <i_m_Source_File_Index>  (277) 
194

>  <s_m_subgroup_title>  (277) 
3C-like_protease_GHDDI_ligprep

>  <s_m_subgroupid>  (277) 
3C-like_protease_GHDDI_ligprep

>  <b_m_subgroup_collapsed>  (277) 
0

$$$$
13742
     RDKit          2D

 27 30  0  0  1  0  0  0  0  0999 V2000
   -1.6807    5.5538    0.0000 C   0  0  0  0  0  0  0  0  0  0  0  0
   -2.7445    4.4963    0.0000 N   0  0  0  0  0  0  0  0  0  0  0  0
   -2.3606    3.0463    0.0000 C   0  0  0  0  0  0  0  0  0  0  0  0
   -0.9129    2.6538    0.0000 C   0  0  0  0  0  0  0  0  0  0  0  0
   -0.5289    1.2037    0.0000 C   0  0  0  0  0  0  0  0  0  0  0  0
   -1.5927    0.1462    0.0000 C   0  0  0  0  0  0  0  0  0  0  0  0
   -3.0405    0.5388    0.0000 C   0  0  0  0  0  0  0  0  0  0  0  0
   -3.4244    1.9888    0.0000 C   0  0  0  0  0  0  0  0  0  0  0  0
   -1.2088   -1.3038    0.0000 N   0  0  0  0  0  0  0  0  0  0  0  0
   -2.2726   -2.3613    0.0000 C   0  0  0  0  0  0  0  0  0  0  0  0
   -3.7203   -1.9688    0.0000 C   0  0  0  0  0  0  0  0  0  0  0  0
   -4.8888   -2.9093    0.0000 C   0  0  0  0  0  0  0  0  0  0  0  0
   -6.1444   -2.0886    0.0000 C   0  0  0  0  0  0  0  0  0  0  0  0
   -5.7519   -0.6409    0.0000 S   0  0  0  0  0  0  0  0  0  0  0  0
   -4.2537   -0.5668    0.0000 C   0  0  0  0  0  0  0  0  0  0  0  0
    0.2389   -1.6963    0.0000 C   0  0  0  0  0  0  0  0  0  0  0  0
    0.6229   -3.1464    0.0000 O   0  0  0  0  0  0  0  0  0  0  0  0
    1.3027   -0.6388    0.0000 C   0  0  0  0  0  0  0  0  0  0  0  0
    2.7505   -1.0313    0.0000 N   0  0  0  0  0  0  0  0  0  0  0  0
    3.2839   -2.4333    0.0000 N   0  0  0  0  0  0  0  0  0  0  0  0
    4.7820   -2.3592    0.0000 N   0  0  0  0  0  0  0  0  0  0  0  0
    5.1746   -0.9115    0.0000 C   0  0  0  0  0  0  0  0  0  0  0  0
    6.5131   -0.2345    0.0000 C   0  0  0  0  0  0  0  0  0  0  0  0
    6.5960    1.2632    0.0000 C   0  0  0  0  0  0  0  0  0  0  0  0
    5.3404    2.0839    0.0000 C   0  0  0  0  0  0  0  0  0  0  0  0
    4.0019    1.4069    0.0000 C   0  0  0  0  0  0  0  0  0  0  0  0
    3.9190   -0.0908    0.0000 C   0  0  0  0  0  0  0  0  0  0  0  0
  1  2  1  0
  2  3  1  0
  3  4  2  0
  3  8  1  0
  4  5  1  0
  5  6  2  0
  6  7  1  0
  6  9  1  0
  7  8  2  0
  9 10  1  0
  9 16  1  0
 10 11  1  0
 11 12  1  0
 11 15  2  0
 12 13  2  0
 13 14  1  0
 14 15  1  0
 16 17  2  0
 16 18  1  0
 18 19  1  0
 19 20  1  0
 19 27  1  0
 20 21  2  0
 21 22  1  0
 22 23  1  0
 22 27  2  0
 23 24  2  0
 24 25  1  0
 25 26  2  0
 26 27  1  0
M  END
>  <s_m_entry_id>  (278) 
577

>  <s_m_entry_name>  (278) 
3C-like_protease_GHDDI_ligprep.196

>  <s_m_Source_Path>  (278) 
/home/jgilaber/drug_learning/drug_learning/datasets/SAR1/GHDDI

>  <s_m_Source_File>  (278) 
3C-like_protease_GHDDI_ligprep.sdf

>  <i_m_Source_File_Index>  (278) 
196

>  <s_m_subgroup_title>  (278) 
3C-like_protease_GHDDI_ligprep

>  <s_m_subgroupid>  (278) 
3C-like_protease_GHDDI_ligprep

>  <b_m_subgroup_collapsed>  (278) 
0

$$$$
13743
     RDKit          2D

 44 48  0  0  1  0  0  0  0  0999 V2000
   -5.7821    4.8942    0.0000 C   0  0  0  0  0  0  0  0  0  0  0  0
   -5.3166    3.4682    0.0000 O   0  0  0  0  0  0  0  0  0  0  0  0
   -3.8489    3.1584    0.0000 C   0  0  0  0  0  0  0  0  0  0  0  0
   -2.8468    4.2746    0.0000 C   0  0  0  0  0  0  0  0  0  0  0  0
   -1.3792    3.9648    0.0000 C   0  0  0  0  0  0  0  0  0  0  0  0
   -0.9136    2.5388    0.0000 C   0  0  0  0  0  0  0  0  0  0  0  0
   -1.9158    1.4227    0.0000 C   0  0  0  0  0  0  0  0  0  0  0  0
   -3.3834    1.7325    0.0000 C   0  0  0  0  0  0  0  0  0  0  0  0
   -1.4502   -0.0032    0.0000 C   0  0  0  0  0  0  0  0  0  0  0  0
    0.0174   -0.3130    0.0000 N   0  0  0  0  0  0  0  0  0  0  0  0
    0.4830   -1.7390    0.0000 C   0  0  0  0  0  0  0  0  0  0  0  0
   -0.5192   -2.8551    0.0000 O   0  0  0  0  0  0  0  0  0  0  0  0
    1.9506   -2.0488    0.0000 C   0  0  0  0  0  0  0  0  0  0  0  0
    2.4162   -3.4747    0.0000 N   0  0  0  0  0  0  0  0  0  0  0  0
    1.5362   -4.6895    0.0000 N   0  0  0  0  0  0  0  0  0  0  0  0
    2.4196   -5.9018    0.0000 N   0  0  0  0  0  0  0  0  0  0  0  0
    3.8455   -5.4362    0.0000 C   0  0  0  0  0  0  0  0  0  0  0  0
    5.1456   -6.1844    0.0000 C   0  0  0  0  0  0  0  0  0  0  0  0
    6.4436   -5.4326    0.0000 C   0  0  0  0  0  0  0  0  0  0  0  0
    6.4415   -3.9326    0.0000 C   0  0  0  0  0  0  0  0  0  0  0  0
    5.1414   -3.1844    0.0000 C   0  0  0  0  0  0  0  0  0  0  0  0
    3.8434   -3.9362    0.0000 C   0  0  0  0  0  0  0  0  0  0  0  0
    1.0196    0.8031    0.0000 C   0  0  0  0  0  0  0  0  0  0  0  0
    2.4872    0.4933    0.0000 C   0  0  0  0  0  0  0  0  0  0  0  0
    3.4893    1.6094    0.0000 C   0  0  0  0  0  0  0  0  0  0  0  0
    3.0238    3.0353    0.0000 C   0  0  0  0  0  0  0  0  0  0  0  0
    4.0259    4.1515    0.0000 N   0  0  0  0  0  0  0  0  0  0  0  0
    5.4936    3.8417    0.0000 C   0  0  0  0  0  0  0  0  0  0  0  0
    5.9591    2.4157    0.0000 O   0  0  0  0  0  0  0  0  0  0  0  0
    6.4957    4.9578    0.0000 C   0  0  0  0  0  0  0  0  0  0  0  0
    7.9634    4.6480    0.0000 C   0  0  0  0  0  0  0  0  0  0  0  0
    6.0302    6.3837    0.0000 C   0  0  0  0  0  0  0  0  0  0  0  0
    1.5562    3.3451    0.0000 C   0  0  0  0  0  0  0  0  0  0  0  0
    0.5540    2.2290    0.0000 C   0  0  0  0  0  0  0  0  0  0  0  0
   -2.4524   -1.1194    0.0000 C   0  0  0  0  0  0  0  0  0  0  0  0
   -1.9868   -2.5453    0.0000 O   0  0  0  0  0  0  0  0  0  0  0  0
   -3.9200   -0.8096    0.0000 N   0  0  0  0  0  0  0  0  0  0  0  0
   -4.9221   -1.9257    0.0000 C   0  0  0  0  0  0  0  0  0  0  0  0
   -6.3898   -1.6159    0.0000 C   0  0  0  0  0  0  0  0  0  0  0  0
   -6.8553   -0.1900    0.0000 C   0  0  0  0  0  0  0  0  0  0  0  0
   -8.3230    0.1198    0.0000 C   0  0  0  0  0  0  0  0  0  0  0  0
   -9.3251   -0.9963    0.0000 C   0  0  0  0  0  0  0  0  0  0  0  0
   -8.8596   -2.4222    0.0000 C   0  0  0  0  0  0  0  0  0  0  0  0
   -7.3919   -2.7320    0.0000 C   0  0  0  0  0  0  0  0  0  0  0  0
  1  2  1  0
  2  3  1  0
  3  4  2  0
  3  8  1  0
  4  5  1  0
  5  6  2  0
  6  7  1  0
  7  8  2  0
  7  9  1  0
  9 10  1  0
  9 35  1  0
 10 11  1  0
 10 23  1  0
 11 12  2  0
 11 13  1  0
 13 14  1  0
 14 15  1  0
 14 22  1  0
 15 16  2  0
 16 17  1  0
 17 18  1  0
 17 22  2  0
 18 19  2  0
 19 20  1  0
 20 21  2  0
 21 22  1  0
 23 24  2  0
 23 34  1  0
 24 25  1  0
 25 26  2  0
 26 27  1  0
 26 33  1  0
 27 28  1  0
 28 29  2  0
 28 30  1  0
 30 31  1  0
 30 32  1  0
 33 34  2  0
 35 36  2  0
 35 37  1  0
 37 38  1  0
 38 39  1  0
 39 40  2  0
 39 44  1  0
 40 41  1  0
 41 42  2  0
 42 43  1  0
 43 44  2  0
M  END
>  <s_m_entry_id>  (279) 
578

>  <s_m_entry_name>  (279) 
3C-like_protease_GHDDI_ligprep.197

>  <s_m_Source_Path>  (279) 
/home/jgilaber/drug_learning/drug_learning/datasets/SAR1/GHDDI

>  <s_m_Source_File>  (279) 
3C-like_protease_GHDDI_ligprep.sdf

>  <i_m_Source_File_Index>  (279) 
197

>  <s_m_subgroup_title>  (279) 
3C-like_protease_GHDDI_ligprep

>  <s_m_subgroupid>  (279) 
3C-like_protease_GHDDI_ligprep

>  <b_m_subgroup_collapsed>  (279) 
0

$$$$
13745
     RDKit          2D

 21 23  0  0  1  0  0  0  0  0999 V2000
   -3.4260   -2.2488    0.0000 C   0  0  0  0  0  0  0  0  0  0  0  0
   -3.8469   -0.8091    0.0000 C   0  0  0  0  0  0  0  0  0  0  0  0
   -5.3042   -0.4537    0.0000 C   0  0  0  0  0  0  0  0  0  0  0  0
   -5.7251    0.9861    0.0000 C   0  0  0  0  0  0  0  0  0  0  0  0
   -4.6887    2.0704    0.0000 C   0  0  0  0  0  0  0  0  0  0  0  0
   -3.2314    1.7151    0.0000 C   0  0  0  0  0  0  0  0  0  0  0  0
   -2.8105    0.2753    0.0000 N   0  0  0  0  0  0  0  0  0  0  0  0
   -1.3532   -0.0801    0.0000 S   0  0  0  0  0  0  0  0  0  0  0  0
   -0.9978    1.3772    0.0000 O   0  0  0  0  0  0  0  0  0  0  0  0
   -1.7086   -1.5374    0.0000 O   0  0  0  0  0  0  0  0  0  0  0  0
    0.1041   -0.4354    0.0000 C   0  0  0  0  0  0  0  0  0  0  0  0
    0.5250   -1.8752    0.0000 C   0  0  0  0  0  0  0  0  0  0  0  0
    1.9823   -2.2305    0.0000 C   0  0  0  0  0  0  0  0  0  0  0  0
    3.0187   -1.1462    0.0000 C   0  0  0  0  0  0  0  0  0  0  0  0
    4.5180   -1.1908    0.0000 N   0  0  0  0  0  0  0  0  0  0  0  0
    5.0238    0.2214    0.0000 C   0  0  0  0  0  0  0  0  0  0  0  0
    6.4635    0.6423    0.0000 O   0  0  0  0  0  0  0  0  0  0  0  0
    3.8370    1.1388    0.0000 C   0  0  0  0  0  0  0  0  0  0  0  0
    3.8816    2.6381    0.0000 O   0  0  0  0  0  0  0  0  0  0  0  0
    2.5978    0.2936    0.0000 C   0  0  0  0  0  0  0  0  0  0  0  0
    1.1405    0.6489    0.0000 C   0  0  0  0  0  0  0  0  0  0  0  0
  1  2  1  0
  2  3  1  0
  2  7  1  0
  3  4  1  0
  4  5  1  0
  5  6  1  0
  6  7  1  0
  7  8  1  0
  8  9  2  0
  8 10  2  0
  8 11  1  0
 11 12  2  0
 11 21  1  0
 12 13  1  0
 13 14  2  0
 14 15  1  0
 14 20  1  0
 15 16  1  0
 16 17  2  0
 16 18  1  0
 18 19  2  0
 18 20  1  0
 20 21  2  0
M  END
>  <s_m_entry_id>  (280) 
582

>  <s_m_entry_name>  (280) 
3C-like_protease_GHDDI_ligprep.201

>  <s_m_Source_Path>  (280) 
/home/jgilaber/drug_learning/drug_learning/datasets/SAR1/GHDDI

>  <s_m_Source_File>  (280) 
3C-like_protease_GHDDI_ligprep.sdf

>  <i_m_Source_File_Index>  (280) 
201

>  <s_m_subgroup_title>  (280) 
3C-like_protease_GHDDI_ligprep

>  <s_m_subgroupid>  (280) 
3C-like_protease_GHDDI_ligprep

>  <b_m_subgroup_collapsed>  (280) 
0

$$$$
13746
     RDKit          2D

 44 46  0  0  1  0  0  0  0  0999 V2000
   -2.5133    4.7266    0.0000 C   0  0  0  0  0  0  0  0  0  0  0  0
   -1.9440    3.3388    0.0000 C   0  0  0  0  0  0  0  0  0  0  0  0
   -2.8612    2.1519    0.0000 C   0  0  0  0  0  0  0  0  0  0  0  0
   -0.4576    3.1379    0.0000 C   0  0  0  0  0  0  0  0  0  0  0  0
    0.1117    1.7502    0.0000 C   0  0  0  0  0  0  0  0  0  0  0  0
    1.5982    1.5493    0.0000 N   0  0  0  0  0  0  0  0  0  0  0  0
    2.5154    2.7362    0.0000 C   0  0  0  0  0  0  0  0  0  0  0  0
    1.9461    4.1240    0.0000 O   0  0  0  0  0  0  0  0  0  0  0  0
    4.0019    2.5353    0.0000 C   0  0  0  0  0  0  0  0  0  0  0  0
    4.5712    1.1476    0.0000 N   0  0  0  0  0  0  0  0  0  0  0  0
    6.0577    0.9467    0.0000 C   0  0  0  0  0  0  0  0  0  0  0  0
    6.9749    2.1336    0.0000 O   0  0  0  0  0  0  0  0  0  0  0  0
    6.6270   -0.4411    0.0000 C   0  0  0  0  0  0  0  0  0  0  0  0
    8.0843   -0.7962    0.0000 C   0  0  0  0  0  0  0  0  0  0  0  0
    8.1969   -2.2920    0.0000 C   0  0  0  0  0  0  0  0  0  0  0  0
    6.8092   -2.8613    0.0000 C   0  0  0  0  0  0  0  0  0  0  0  0
    5.8389   -1.7173    0.0000 S   0  0  0  0  0  0  0  0  0  0  0  0
    4.9191    3.7222    0.0000 C   0  0  0  0  0  0  0  0  0  0  0  0
    6.4056    3.5214    0.0000 C   0  0  0  0  0  0  0  0  0  0  0  0
    4.3498    5.1100    0.0000 C   0  0  0  0  0  0  0  0  0  0  0  0
   -0.8055    0.5633    0.0000 C   0  0  0  0  0  0  0  0  0  0  0  0
   -2.2920    0.7641    0.0000 O   0  0  0  0  0  0  0  0  0  0  0  0
   -0.2362   -0.8245    0.0000 N   0  0  0  0  0  0  0  0  0  0  0  0
   -1.1534   -2.0114    0.0000 C   0  0  0  0  0  0  0  0  0  0  0  0
   -0.5841   -3.3992    0.0000 C   0  0  0  0  0  0  0  0  0  0  0  0
    0.9024   -3.6000    0.0000 C   0  0  0  0  0  0  0  0  0  0  0  0
    1.4717   -4.9878    0.0000 C   0  0  0  0  0  0  0  0  0  0  0  0
    2.9582   -5.1887    0.0000 C   0  0  0  0  0  0  0  0  0  0  0  0
    3.8754   -4.0018    0.0000 C   0  0  0  0  0  0  0  0  0  0  0  0
    3.3061   -2.6140    0.0000 C   0  0  0  0  0  0  0  0  0  0  0  0
    1.8196   -2.4131    0.0000 C   0  0  0  0  0  0  0  0  0  0  0  0
   -2.6399   -1.8105    0.0000 C   0  0  0  0  0  0  0  0  0  0  0  0
   -3.5571   -2.9975    0.0000 O   0  0  0  0  0  0  0  0  0  0  0  0
   -3.2092   -0.4228    0.0000 N   0  0  0  0  0  0  0  0  0  0  0  0
   -4.6956   -0.2219    0.0000 C   0  0  0  0  0  0  0  0  0  0  0  0
   -5.2649    1.1659    0.0000 C   0  0  0  0  0  0  0  0  0  0  0  0
   -6.7514    1.3667    0.0000 C   0  0  0  0  0  0  0  0  0  0  0  0
   -7.6686    0.1798    0.0000 C   0  0  0  0  0  0  0  0  0  0  0  0
   -7.0993   -1.2080    0.0000 C   0  0  0  0  0  0  0  0  0  0  0  0
   -5.6128   -1.4088    0.0000 C   0  0  0  0  0  0  0  0  0  0  0  0
   -5.0436   -2.7966    0.0000 Cl  0  0  0  0  0  0  0  0  0  0  0  0
   -9.1551    0.3807    0.0000 N   0  0  0  0  0  0  0  0  0  0  0  0
  -10.0723   -0.8062    0.0000 O   0  0  0  0  0  0  0  0  0  0  0  0
   -9.7244    1.7685    0.0000 O   0  0  0  0  0  0  0  0  0  0  0  0
  1  2  1  0
  2  3  1  0
  2  4  1  0
  4  5  1  0
  5  6  1  0
  5 21  1  0
  6  7  1  0
  7  8  2  0
  7  9  1  0
  9 10  1  0
  9 18  1  0
 10 11  1  0
 11 12  2  0
 11 13  1  0
 13 14  2  0
 13 17  1  0
 14 15  1  0
 15 16  2  0
 16 17  1  0
 18 19  1  0
 18 20  1  0
 21 22  2  0
 21 23  1  0
 23 24  1  0
 24 25  1  0
 24 32  1  0
 25 26  1  0
 26 27  2  0
 26 31  1  0
 27 28  1  0
 28 29  2  0
 29 30  1  0
 30 31  2  0
 32 33  2  0
 32 34  1  0
 34 35  1  0
 35 36  2  0
 35 40  1  0
 36 37  1  0
 37 38  2  0
 38 39  1  0
 38 42  1  0
 39 40  2  0
 40 41  1  0
 42 43  2  0
 42 44  1  0
M  CHG  2  42   1  44  -1
M  END
>  <s_m_entry_id>  (281) 
584

>  <s_m_entry_name>  (281) 
3C-like_protease_GHDDI_ligprep.203

>  <s_m_Source_Path>  (281) 
/home/jgilaber/drug_learning/drug_learning/datasets/SAR1/GHDDI

>  <s_m_Source_File>  (281) 
3C-like_protease_GHDDI_ligprep.sdf

>  <i_m_Source_File_Index>  (281) 
203

>  <s_m_subgroup_title>  (281) 
3C-like_protease_GHDDI_ligprep

>  <s_m_subgroupid>  (281) 
3C-like_protease_GHDDI_ligprep

>  <b_m_subgroup_collapsed>  (281) 
0

$$$$
13748
     RDKit          2D

 54 61  0  0  1  0  0  0  0  0999 V2000
  -12.9904    0.0000    0.0000 O   0  0  0  0  0  0  0  0  0  0  0  0
  -11.6913   -0.7500    0.0000 C   0  0  0  0  0  0  0  0  0  0  0  0
  -11.6913   -2.2500    0.0000 C   0  0  0  0  0  0  0  0  0  0  0  0
  -10.3923   -3.0000    0.0000 C   0  0  0  0  0  0  0  0  0  0  0  0
  -10.3923   -4.5000    0.0000 O   0  0  0  0  0  0  0  0  0  0  0  0
   -9.0933   -2.2500    0.0000 C   0  0  0  0  0  0  0  0  0  0  0  0
   -9.0933   -0.7500    0.0000 C   0  0  0  0  0  0  0  0  0  0  0  0
   -7.7942    0.0000    0.0000 O   0  0  0  0  0  0  0  0  0  0  0  0
   -6.4952   -0.7500    0.0000 C   0  0  0  0  0  0  0  0  0  0  0  0
   -6.4952   -2.2500    0.0000 C   0  0  0  0  0  0  0  0  0  0  0  0
   -7.7942   -3.0000    0.0000 O   0  0  0  0  0  0  0  0  0  0  0  0
   -5.1962   -3.0000    0.0000 C   0  0  0  0  0  0  0  0  0  0  0  0
   -3.8971   -2.2500    0.0000 C   0  0  0  0  0  0  0  0  0  0  0  0
   -2.5981   -3.0000    0.0000 O   0  0  0  0  0  0  0  0  0  0  0  0
   -3.8971   -0.7500    0.0000 C   0  0  0  0  0  0  0  0  0  0  0  0
   -2.5981    0.0000    0.0000 O   0  0  0  0  0  0  0  0  0  0  0  0
   -2.5981    1.5000    0.0000 C   0  0  0  0  0  0  0  0  0  0  0  0
   -1.2990    2.2500    0.0000 C   0  0  0  0  0  0  0  0  0  0  0  0
   -1.2990    3.7500    0.0000 C   0  0  0  0  0  0  0  0  0  0  0  0
    0.0000    4.5000    0.0000 O   0  0  0  0  0  0  0  0  0  0  0  0
    1.2990    3.7500    0.0000 C   0  0  0  0  0  0  0  0  0  0  0  0
    1.2990    2.2500    0.0000 C   0  0  0  0  0  0  0  0  0  0  0  0
    0.0000    1.5000    0.0000 O   0  0  0  0  0  0  0  0  0  0  0  0
    2.5981    1.5000    0.0000 C   0  0  0  0  0  0  0  0  0  0  0  0
    3.8971    2.2500    0.0000 C   0  0  0  0  0  0  0  0  0  0  0  0
    5.1962    1.5000    0.0000 O   0  0  0  0  0  0  0  0  0  0  0  0
    5.1962   -0.0000    0.0000 C   0  0  0  0  0  0  0  0  0  0  0  0
    3.8971   -0.7500    0.0000 C   0  0  0  0  0  0  0  0  0  0  0  0
    2.5981   -0.0000    0.0000 O   0  0  0  0  0  0  0  0  0  0  0  0
    3.8971   -2.2500    0.0000 C   0  0  0  0  0  0  0  0  0  0  0  0
    5.1962   -3.0000    0.0000 C   0  0  0  0  0  0  0  0  0  0  0  0
    5.1962   -4.5000    0.0000 O   0  0  0  0  0  0  0  0  0  0  0  0
    6.4952   -2.2500    0.0000 C   0  0  0  0  0  0  0  0  0  0  0  0
    7.7942   -3.0000    0.0000 O   0  0  0  0  0  0  0  0  0  0  0  0
    9.0933   -2.2500    0.0000 C   0  0  0  0  0  0  0  0  0  0  0  0
   10.3923   -3.0000    0.0000 C   0  0  0  0  0  0  0  0  0  0  0  0
   11.6913   -2.2500    0.0000 C   0  0  0  0  0  0  0  0  0  0  0  0
   12.9904   -3.0000    0.0000 O   0  0  0  0  0  0  0  0  0  0  0  0
   11.6913   -0.7500    0.0000 C   0  0  0  0  0  0  0  0  0  0  0  0
   10.3923   -0.0000    0.0000 C   0  0  0  0  0  0  0  0  0  0  0  0
   10.3923    1.5000    0.0000 O   0  0  0  0  0  0  0  0  0  0  0  0
    9.0933   -0.7500    0.0000 C   0  0  0  0  0  0  0  0  0  0  0  0
    7.7942   -0.0000    0.0000 O   0  0  0  0  0  0  0  0  0  0  0  0
    6.4952   -0.7500    0.0000 C   0  0  0  0  0  0  0  0  0  0  0  0
    3.8971    3.7500    0.0000 C   0  0  0  0  0  0  0  0  0  0  0  0
    2.5981    4.5000    0.0000 C   0  0  0  0  0  0  0  0  0  0  0  0
    2.5981    6.0000    0.0000 O   0  0  0  0  0  0  0  0  0  0  0  0
   -2.5981    4.5000    0.0000 C   0  0  0  0  0  0  0  0  0  0  0  0
   -3.8971    3.7500    0.0000 C   0  0  0  0  0  0  0  0  0  0  0  0
   -5.1962    4.5000    0.0000 O   0  0  0  0  0  0  0  0  0  0  0  0
   -3.8971    2.2500    0.0000 C   0  0  0  0  0  0  0  0  0  0  0  0
   -5.1962    1.5000    0.0000 O   0  0  0  0  0  0  0  0  0  0  0  0
   -5.1962    0.0000    0.0000 C   0  0  0  0  0  0  0  0  0  0  0  0
  -10.3923    0.0000    0.0000 C   0  0  0  0  0  0  0  0  0  0  0  0
  1  2  1  0
  2  3  2  0
  2 54  1  0
  3  4  1  0
  4  5  1  0
  4  6  2  0
  6  7  1  0
  7  8  1  0
  7 54  2  0
  8  9  1  0
  9 10  2  0
  9 53  1  0
 10 11  1  0
 10 12  1  0
 12 13  2  0
 13 14  1  0
 13 15  1  0
 15 16  1  0
 15 53  2  0
 16 17  1  0
 17 18  2  0
 17 51  1  0
 18 19  1  0
 19 20  1  0
 19 48  2  0
 20 21  1  0
 21 22  2  0
 21 46  1  0
 22 23  1  0
 22 24  1  0
 24 25  2  0
 25 26  1  0
 25 45  1  0
 26 27  1  0
 27 28  2  0
 27 44  1  0
 28 29  1  0
 28 30  1  0
 30 31  2  0
 31 32  1  0
 31 33  1  0
 33 34  1  0
 33 44  2  0
 34 35  1  0
 35 36  2  0
 35 42  1  0
 36 37  1  0
 37 38  1  0
 37 39  2  0
 39 40  1  0
 40 41  1  0
 40 42  2  0
 42 43  1  0
 43 44  1  0
 45 46  2  0
 46 47  1  0
 48 49  1  0
 49 50  1  0
 49 51  2  0
 51 52  1  0
 52 53  1  0
M  END
>  <s_m_entry_id>  (282) 
585

>  <s_m_entry_name>  (282) 
3C-like_protease_GHDDI_ligprep.204

>  <s_m_Source_Path>  (282) 
/home/jgilaber/drug_learning/drug_learning/datasets/SAR1/GHDDI

>  <s_m_Source_File>  (282) 
3C-like_protease_GHDDI_ligprep.sdf

>  <i_m_Source_File_Index>  (282) 
204

>  <s_m_subgroup_title>  (282) 
3C-like_protease_GHDDI_ligprep

>  <s_m_subgroupid>  (282) 
3C-like_protease_GHDDI_ligprep

>  <b_m_subgroup_collapsed>  (282) 
0

$$$$
13749
     RDKit          2D

 43 47  0  0  1  0  0  0  0  0999 V2000
    8.1094    4.2666    0.0000 C   0  0  0  0  0  0  0  0  0  0  0  0
    6.6638    4.6669    0.0000 C   0  0  0  0  0  0  0  0  0  0  0  0
    6.2877    6.1190    0.0000 C   0  0  0  0  0  0  0  0  0  0  0  0
    5.5944    3.6151    0.0000 C   0  0  0  0  0  0  0  0  0  0  0  0
    5.9705    2.1631    0.0000 O   0  0  0  0  0  0  0  0  0  0  0  0
    4.1488    4.0155    0.0000 N   0  0  0  0  0  0  0  0  0  0  0  0
    3.0793    2.9637    0.0000 C   0  0  0  0  0  0  0  0  0  0  0  0
    3.4554    1.5116    0.0000 C   0  0  0  0  0  0  0  0  0  0  0  0
    2.3859    0.4599    0.0000 C   0  0  0  0  0  0  0  0  0  0  0  0
    0.9403    0.8602    0.0000 C   0  0  0  0  0  0  0  0  0  0  0  0
    0.5642    2.3123    0.0000 C   0  0  0  0  0  0  0  0  0  0  0  0
    1.6337    3.3640    0.0000 C   0  0  0  0  0  0  0  0  0  0  0  0
   -0.1292   -0.1916    0.0000 N   0  0  0  0  0  0  0  0  0  0  0  0
   -1.5748    0.2088    0.0000 C   0  0  0  0  0  0  0  0  0  0  0  0
   -2.6443   -0.8430    0.0000 C   0  0  0  0  0  0  0  0  0  0  0  0
   -2.2682   -2.2951    0.0000 O   0  0  0  0  0  0  0  0  0  0  0  0
   -4.0899   -0.4427    0.0000 N   0  0  0  0  0  0  0  0  0  0  0  0
   -5.1593   -1.4944    0.0000 C   0  0  0  0  0  0  0  0  0  0  0  0
   -6.6049   -1.0941    0.0000 C   0  0  0  0  0  0  0  0  0  0  0  0
   -6.9810    0.3580    0.0000 C   0  0  0  0  0  0  0  0  0  0  0  0
   -8.4266    0.7583    0.0000 C   0  0  0  0  0  0  0  0  0  0  0  0
   -9.4961   -0.2935    0.0000 C   0  0  0  0  0  0  0  0  0  0  0  0
   -9.1200   -1.7456    0.0000 C   0  0  0  0  0  0  0  0  0  0  0  0
   -7.6744   -2.1459    0.0000 C   0  0  0  0  0  0  0  0  0  0  0  0
   -1.9509    1.6608    0.0000 C   0  0  0  0  0  0  0  0  0  0  0  0
   -0.8814    2.7126    0.0000 C   0  0  0  0  0  0  0  0  0  0  0  0
   -1.2575    4.1647    0.0000 C   0  0  0  0  0  0  0  0  0  0  0  0
   -2.7031    4.5650    0.0000 C   0  0  0  0  0  0  0  0  0  0  0  0
   -3.7726    3.5132    0.0000 C   0  0  0  0  0  0  0  0  0  0  0  0
   -5.2182    3.9136    0.0000 F   0  0  0  0  0  0  0  0  0  0  0  0
   -3.3965    2.0612    0.0000 C   0  0  0  0  0  0  0  0  0  0  0  0
    0.2469   -1.6437    0.0000 C   0  0  0  0  0  0  0  0  0  0  0  0
   -0.8226   -2.6954    0.0000 O   0  0  0  0  0  0  0  0  0  0  0  0
    1.6925   -2.0440    0.0000 C   0  0  0  0  0  0  0  0  0  0  0  0
    2.0686   -3.4961    0.0000 N   0  0  0  0  0  0  0  0  0  0  0  0
    1.1149   -4.6538    0.0000 C   0  0  0  0  0  0  0  0  0  0  0  0
    1.9214   -5.9186    0.0000 N   0  0  0  0  0  0  0  0  0  0  0  0
    3.3734   -5.5425    0.0000 C   0  0  0  0  0  0  0  0  0  0  0  0
    4.6246   -6.3700    0.0000 C   0  0  0  0  0  0  0  0  0  0  0  0
    5.9667   -5.7002    0.0000 C   0  0  0  0  0  0  0  0  0  0  0  0
    6.0577   -4.2029    0.0000 C   0  0  0  0  0  0  0  0  0  0  0  0
    4.8066   -3.3755    0.0000 C   0  0  0  0  0  0  0  0  0  0  0  0
    3.4645   -4.0453    0.0000 C   0  0  0  0  0  0  0  0  0  0  0  0
  1  2  1  0
  2  3  1  0
  2  4  1  0
  4  5  2  0
  4  6  1  0
  6  7  1  0
  7  8  2  0
  7 12  1  0
  8  9  1  0
  9 10  2  0
 10 11  1  0
 10 13  1  0
 11 12  2  0
 13 14  1  0
 13 32  1  0
 14 15  1  0
 14 25  1  0
 15 16  2  0
 15 17  1  0
 17 18  1  0
 18 19  1  0
 19 20  2  0
 19 24  1  0
 20 21  1  0
 21 22  2  0
 22 23  1  0
 23 24  2  0
 25 26  2  0
 25 31  1  0
 26 27  1  0
 27 28  2  0
 28 29  1  0
 29 30  1  0
 29 31  2  0
 32 33  2  0
 32 34  1  0
 34 35  1  0
 35 36  1  0
 35 43  1  0
 36 37  2  0
 37 38  1  0
 38 39  1  0
 38 43  2  0
 39 40  2  0
 40 41  1  0
 41 42  2  0
 42 43  1  0
M  END
>  <s_m_entry_id>  (283) 
586

>  <s_m_entry_name>  (283) 
3C-like_protease_GHDDI_ligprep.205

>  <s_m_Source_Path>  (283) 
/home/jgilaber/drug_learning/drug_learning/datasets/SAR1/GHDDI

>  <s_m_Source_File>  (283) 
3C-like_protease_GHDDI_ligprep.sdf

>  <i_m_Source_File_Index>  (283) 
205

>  <s_m_subgroup_title>  (283) 
3C-like_protease_GHDDI_ligprep

>  <s_m_subgroupid>  (283) 
3C-like_protease_GHDDI_ligprep

>  <b_m_subgroup_collapsed>  (283) 
0

$$$$
13750
     RDKit          2D

 31 34  0  0  1  0  0  0  0  0999 V2000
    5.4537   -1.9889    0.0000 O   0  0  0  0  0  0  0  0  0  0  0  0
    4.1789   -1.1985    0.0000 N   0  0  0  0  0  0  0  0  0  0  0  0
    4.3959   -0.4315    0.0000 O   0  0  0  0  0  0  0  0  0  0  0  0
    2.8569   -1.9073    0.0000 C   0  0  0  0  0  0  0  0  0  0  0  0
    2.8098   -3.4066    0.0000 C   0  0  0  0  0  0  0  0  0  0  0  0
    1.4879   -4.1155    0.0000 C   0  0  0  0  0  0  0  0  0  0  0  0
    0.2130   -3.3250    0.0000 C   0  0  0  0  0  0  0  0  0  0  0  0
    0.2601   -1.8258    0.0000 C   0  0  0  0  0  0  0  0  0  0  0  0
    1.5821   -1.1169    0.0000 C   0  0  0  0  0  0  0  0  0  0  0  0
    1.6291    0.3823    0.0000 C   0  0  0  0  0  0  0  0  0  0  0  0
    0.3543    1.1727    0.0000 C   0  0  0  0  0  0  0  0  0  0  0  0
    0.4014    2.6720    0.0000 C   0  0  0  0  0  0  0  0  0  0  0  0
    1.7233    3.3809    0.0000 N   0  0  0  0  0  0  0  0  0  0  0  0
    2.9982    2.5904    0.0000 C   0  0  0  0  0  0  0  0  0  0  0  0
    2.9511    1.0912    0.0000 C   0  0  0  0  0  0  0  0  0  0  0  0
    4.2259    0.3008    0.0000 C   0  0  0  0  0  0  0  0  0  0  0  0
    4.5430   -1.1653    0.0000 O   0  0  0  0  0  0  0  0  0  0  0  0
    5.5479    1.0096    0.0000 C   0  0  0  0  0  0  0  0  0  0  0  0
    5.5950    2.5089    0.0000 C   0  0  0  0  0  0  0  0  0  0  0  0
    4.3201    3.2993    0.0000 C   0  0  0  0  0  0  0  0  0  0  0  0
   -0.9676    0.4639    0.0000 C   0  0  0  0  0  0  0  0  0  0  0  0
   -1.0147   -1.0354    0.0000 O   0  0  0  0  0  0  0  0  0  0  0  0
   -2.2425    1.2543    0.0000 O   0  0  0  0  0  0  0  0  0  0  0  0
   -3.5644    0.5455    0.0000 C   0  0  0  0  0  0  0  0  0  0  0  0
   -4.8393    1.3359    0.0000 C   0  0  0  0  0  0  0  0  0  0  0  0
   -6.1612    0.6270    0.0000 C   0  0  0  0  0  0  0  0  0  0  0  0
   -7.4361    1.4174    0.0000 C   0  0  0  0  0  0  0  0  0  0  0  0
   -8.7580    0.7086    0.0000 C   0  0  0  0  0  0  0  0  0  0  0  0
   -8.8051   -0.7907    0.0000 C   0  0  0  0  0  0  0  0  0  0  0  0
   -7.5303   -1.5811    0.0000 C   0  0  0  0  0  0  0  0  0  0  0  0
   -6.2083   -0.8722    0.0000 C   0  0  0  0  0  0  0  0  0  0  0  0
  1  2  1  0
  2  3  2  0
  2  4  1  0
  4  5  2  0
  4  9  1  0
  5  6  1  0
  6  7  2  0
  7  8  1  0
  8  9  2  0
  9 10  1  0
 10 11  1  0
 10 15  1  0
 11 12  2  0
 11 21  1  0
 12 13  1  0
 13 14  1  0
 14 15  1  0
 14 20  2  0
 15 16  2  0
 16 17  1  0
 16 18  1  0
 18 19  1  0
 19 20  1  0
 21 22  2  0
 21 23  1  0
 23 24  1  0
 24 25  1  0
 25 26  1  0
 26 27  2  0
 26 31  1  0
 27 28  1  0
 28 29  2  0
 29 30  1  0
 30 31  2  0
M  CHG  3   1  -1   2   1  17  -1
M  END
>  <s_m_entry_id>  (284) 
588

>  <s_m_entry_name>  (284) 
3C-like_protease_GHDDI_ligprep.207

>  <s_m_Source_Path>  (284) 
/home/jgilaber/drug_learning/drug_learning/datasets/SAR1/GHDDI

>  <s_m_Source_File>  (284) 
3C-like_protease_GHDDI_ligprep.sdf

>  <i_m_Source_File_Index>  (284) 
207

>  <s_m_subgroup_title>  (284) 
3C-like_protease_GHDDI_ligprep

>  <s_m_subgroupid>  (284) 
3C-like_protease_GHDDI_ligprep

>  <b_m_subgroup_collapsed>  (284) 
0

$$$$
13752
     RDKit          2D

 43 50  0  0  1  0  0  0  0  0999 V2000
    1.9520    0.3674    0.0000 C   0  0  0  0  0  0  0  0  0  0  0  0
    1.6402   -1.0998    0.0000 C   0  0  0  0  0  0  0  0  0  0  0  0
    2.7549   -2.1035    0.0000 N   0  0  0  0  0  0  0  0  0  0  0  0
    2.5981   -3.5953    0.0000 C   0  0  0  0  0  0  0  0  0  0  0  0
    1.2990   -4.3453    0.0000 C   0  0  0  0  0  0  0  0  0  0  0  0
    0.0000   -3.5953    0.0000 C   0  0  0  0  0  0  0  0  0  0  0  0
   -1.2990   -4.3453    0.0000 C   0  0  0  0  0  0  0  0  0  0  0  0
   -2.5981   -3.5953    0.0000 C   0  0  0  0  0  0  0  0  0  0  0  0
   -2.7549   -2.1035    0.0000 N   0  0  0  0  0  0  0  0  0  0  0  0
   -1.6402   -1.0998    0.0000 C   0  0  0  0  0  0  0  0  0  0  0  0
   -1.9520    0.3674    0.0000 C   0  0  0  0  0  0  0  0  0  0  0  0
   -4.2221   -1.7916    0.0000 C   0  0  0  0  0  0  0  0  0  0  0  0
   -4.9721   -0.4926    0.0000 C   0  0  0  0  0  0  0  0  0  0  0  0
   -6.4721   -0.4926    0.0000 C   0  0  0  0  0  0  0  0  0  0  0  0
   -7.2221   -1.7916    0.0000 C   0  0  0  0  0  0  0  0  0  0  0  0
   -6.4721   -3.0907    0.0000 C   0  0  0  0  0  0  0  0  0  0  0  0
   -4.9721   -3.0907    0.0000 C   0  0  0  0  0  0  0  0  0  0  0  0
   -3.9684   -4.2054    0.0000 S   0  0  0  0  0  0  0  0  0  0  0  0
   -7.2221    0.8064    0.0000 C   0  0  0  0  0  0  0  0  0  0  0  0
   -6.6120    2.1768    0.0000 N   0  0  0  0  0  0  0  0  0  0  0  0
   -7.7267    3.1805    0.0000 C   0  0  0  0  0  0  0  0  0  0  0  0
   -7.7267    4.6805    0.0000 C   0  0  0  0  0  0  0  0  0  0  0  0
   -9.0257    5.4305    0.0000 C   0  0  0  0  0  0  0  0  0  0  0  0
  -10.3248    4.6805    0.0000 C   0  0  0  0  0  0  0  0  0  0  0  0
  -10.3248    3.1805    0.0000 C   0  0  0  0  0  0  0  0  0  0  0  0
   -9.0257    2.4305    0.0000 C   0  0  0  0  0  0  0  0  0  0  0  0
   -8.7139    0.9632    0.0000 S   0  0  0  0  0  0  0  0  0  0  0  0
    3.9684   -4.2054    0.0000 S   0  0  0  0  0  0  0  0  0  0  0  0
    4.9721   -3.0907    0.0000 C   0  0  0  0  0  0  0  0  0  0  0  0
    6.4721   -3.0907    0.0000 C   0  0  0  0  0  0  0  0  0  0  0  0
    7.2221   -1.7916    0.0000 C   0  0  0  0  0  0  0  0  0  0  0  0
    6.4721   -0.4926    0.0000 C   0  0  0  0  0  0  0  0  0  0  0  0
    4.9721   -0.4926    0.0000 C   0  0  0  0  0  0  0  0  0  0  0  0
    4.2221   -1.7916    0.0000 C   0  0  0  0  0  0  0  0  0  0  0  0
    7.2221    0.8064    0.0000 C   0  0  0  0  0  0  0  0  0  0  0  0
    8.7139    0.9632    0.0000 N   0  0  0  0  0  0  0  0  0  0  0  0
    9.0257    2.4305    0.0000 C   0  0  0  0  0  0  0  0  0  0  0  0
   10.3248    3.1805    0.0000 C   0  0  0  0  0  0  0  0  0  0  0  0
   10.3248    4.6805    0.0000 C   0  0  0  0  0  0  0  0  0  0  0  0
    9.0257    5.4305    0.0000 C   0  0  0  0  0  0  0  0  0  0  0  0
    7.7267    4.6805    0.0000 C   0  0  0  0  0  0  0  0  0  0  0  0
    7.7267    3.1805    0.0000 C   0  0  0  0  0  0  0  0  0  0  0  0
    6.6120    2.1768    0.0000 S   0  0  0  0  0  0  0  0  0  0  0  0
  1  2  1  0
  2  3  1  0
  3  4  2  0
  3 34  1  0
  4  5  1  0
  4 28  1  0
  5  6  1  0
  6  7  2  0
  7  8  1  0
  8  9  2  0
  8 18  1  0
  9 10  1  0
  9 12  1  0
 10 11  1  0
 12 13  2  0
 12 17  1  0
 13 14  1  0
 14 15  2  0
 14 19  1  0
 15 16  1  0
 16 17  2  0
 17 18  1  0
 19 20  2  0
 19 27  1  0
 20 21  1  0
 21 22  2  0
 21 26  1  0
 22 23  1  0
 23 24  2  0
 24 25  1  0
 25 26  2  0
 26 27  1  0
 28 29  1  0
 29 30  1  0
 29 34  2  0
 30 31  2  0
 31 32  1  0
 32 33  2  0
 32 35  1  0
 33 34  1  0
 35 36  2  0
 35 43  1  0
 36 37  1  0
 37 38  2  0
 37 42  1  0
 38 39  1  0
 39 40  2  0
 40 41  1  0
 41 42  2  0
 42 43  1  0
M  CHG  2   3   1   9   1
M  END
>  <s_m_entry_id>  (285) 
593

>  <s_m_entry_name>  (285) 
3C-like_protease_GHDDI_ligprep.212

>  <s_m_Source_Path>  (285) 
/home/jgilaber/drug_learning/drug_learning/datasets/SAR1/GHDDI

>  <s_m_Source_File>  (285) 
3C-like_protease_GHDDI_ligprep.sdf

>  <i_m_Source_File_Index>  (285) 
212

>  <s_m_subgroup_title>  (285) 
3C-like_protease_GHDDI_ligprep

>  <s_m_subgroupid>  (285) 
3C-like_protease_GHDDI_ligprep

>  <b_m_subgroup_collapsed>  (285) 
0

$$$$
13753
     RDKit          2D

 32 35  0  0  1  0  0  0  0  0999 V2000
   -0.8253   -3.3172    0.0000 C   0  0  0  0  0  0  0  0  0  0  0  0
    0.4442   -2.5183    0.0000 C   0  0  0  0  0  0  0  0  0  0  0  0
    0.3871   -1.0194    0.0000 C   0  0  0  0  0  0  0  0  0  0  0  0
    1.6566   -0.2204    0.0000 C   0  0  0  0  0  0  0  0  0  0  0  0
    2.9833   -0.9204    0.0000 C   0  0  0  0  0  0  0  0  0  0  0  0
    3.0404   -2.4193    0.0000 C   0  0  0  0  0  0  0  0  0  0  0  0
    4.3671   -3.1193    0.0000 C   0  0  0  0  0  0  0  0  0  0  0  0
    5.6366   -2.3204    0.0000 C   0  0  0  0  0  0  0  0  0  0  0  0
    5.5795   -0.8215    0.0000 C   0  0  0  0  0  0  0  0  0  0  0  0
    4.2528   -0.1215    0.0000 C   0  0  0  0  0  0  0  0  0  0  0  0
    4.4161    0.6588    0.0000 O   0  0  0  0  0  0  0  0  0  0  0  0
    1.7709   -3.2183    0.0000 N   0  0  0  0  0  0  0  0  0  0  0  0
    1.5995    1.2785    0.0000 C   0  0  0  0  0  0  0  0  0  0  0  0
    0.2728    1.9785    0.0000 C   0  0  0  0  0  0  0  0  0  0  0  0
    0.2157    3.4774    0.0000 C   0  0  0  0  0  0  0  0  0  0  0  0
    1.4852    4.2763    0.0000 C   0  0  0  0  0  0  0  0  0  0  0  0
    2.8119    3.5763    0.0000 C   0  0  0  0  0  0  0  0  0  0  0  0
    2.8690    2.0774    0.0000 C   0  0  0  0  0  0  0  0  0  0  0  0
    4.1957    1.3774    0.0000 N   0  0  0  0  0  0  0  0  0  0  0  0
    4.6138   -0.0631    0.0000 O   0  0  0  0  0  0  0  0  0  0  0  0
    5.4652    2.1764    0.0000 O   0  0  0  0  0  0  0  0  0  0  0  0
   -0.9396   -0.3194    0.0000 C   0  0  0  0  0  0  0  0  0  0  0  0
   -0.9967    1.1795    0.0000 O   0  0  0  0  0  0  0  0  0  0  0  0
   -2.2091   -1.1183    0.0000 O   0  0  0  0  0  0  0  0  0  0  0  0
   -3.5358   -0.4184    0.0000 C   0  0  0  0  0  0  0  0  0  0  0  0
   -4.8053   -1.2173    0.0000 C   0  0  0  0  0  0  0  0  0  0  0  0
   -6.1320   -0.5173    0.0000 C   0  0  0  0  0  0  0  0  0  0  0  0
   -6.1891    0.9816    0.0000 C   0  0  0  0  0  0  0  0  0  0  0  0
   -7.5157    1.6816    0.0000 C   0  0  0  0  0  0  0  0  0  0  0  0
   -8.7853    0.8826    0.0000 C   0  0  0  0  0  0  0  0  0  0  0  0
   -8.7281   -0.6163    0.0000 C   0  0  0  0  0  0  0  0  0  0  0  0
   -7.4015   -1.3162    0.0000 C   0  0  0  0  0  0  0  0  0  0  0  0
  1  2  1  0
  2  3  2  0
  2 12  1  0
  3  4  1  0
  3 22  1  0
  4  5  1  0
  4 13  1  0
  5  6  1  0
  5 10  2  0
  6  7  2  0
  6 12  1  0
  7  8  1  0
  8  9  1  0
  9 10  1  0
 10 11  1  0
 13 14  2  0
 13 18  1  0
 14 15  1  0
 15 16  2  0
 16 17  1  0
 17 18  2  0
 18 19  1  0
 19 20  2  0
 19 21  1  0
 22 23  2  0
 22 24  1  0
 24 25  1  0
 25 26  1  0
 26 27  1  0
 27 28  2  0
 27 32  1  0
 28 29  1  0
 29 30  2  0
 30 31  1  0
 31 32  2  0
M  CHG  2  19   1  21  -1
M  END
>  <s_m_entry_id>  (286) 
594

>  <s_m_entry_name>  (286) 
3C-like_protease_GHDDI_ligprep.213

>  <s_m_Source_Path>  (286) 
/home/jgilaber/drug_learning/drug_learning/datasets/SAR1/GHDDI

>  <s_m_Source_File>  (286) 
3C-like_protease_GHDDI_ligprep.sdf

>  <i_m_Source_File_Index>  (286) 
213

>  <s_m_subgroup_title>  (286) 
3C-like_protease_GHDDI_ligprep

>  <s_m_subgroupid>  (286) 
3C-like_protease_GHDDI_ligprep

>  <b_m_subgroup_collapsed>  (286) 
0

$$$$
13754
     RDKit          2D

 14 16  0  0  1  0  0  0  0  0999 V2000
    5.1073   -0.0000    0.0000 N   0  0  0  0  0  0  0  0  0  0  0  0
    3.6073   -0.0000    0.0000 C   0  0  0  0  0  0  0  0  0  0  0  0
    2.7256    1.2135    0.0000 N   0  0  0  0  0  0  0  0  0  0  0  0
    1.2990    0.7500    0.0000 C   0  0  0  0  0  0  0  0  0  0  0  0
    0.0000    1.5000    0.0000 N   0  0  0  0  0  0  0  0  0  0  0  0
   -1.2990    0.7500    0.0000 C   0  0  0  0  0  0  0  0  0  0  0  0
   -2.7256    1.2135    0.0000 N   0  0  0  0  0  0  0  0  0  0  0  0
   -3.6073    0.0000    0.0000 C   0  0  0  0  0  0  0  0  0  0  0  0
   -5.1073    0.0000    0.0000 N   0  0  0  0  0  0  0  0  0  0  0  0
   -2.7256   -1.2135    0.0000 S   0  0  0  0  0  0  0  0  0  0  0  0
   -1.2990   -0.7500    0.0000 C   0  0  0  0  0  0  0  0  0  0  0  0
    0.0000   -1.5000    0.0000 C   0  0  0  0  0  0  0  0  0  0  0  0
    1.2990   -0.7500    0.0000 C   0  0  0  0  0  0  0  0  0  0  0  0
    2.7256   -1.2135    0.0000 C   0  0  0  0  0  0  0  0  0  0  0  0
  1  2  1  0
  2  3  2  0
  2 14  1  0
  3  4  1  0
  4  5  2  0
  4 13  1  0
  5  6  1  0
  6  7  1  0
  6 11  2  0
  7  8  2  0
  8  9  1  0
  8 10  1  0
 10 11  1  0
 11 12  1  0
 12 13  2  0
 13 14  1  0
M  CHG  1   3   1
M  END
>  <s_m_entry_id>  (287) 
598

>  <s_m_entry_name>  (287) 
3C-like_protease_GHDDI_ligprep.217

>  <s_m_Source_Path>  (287) 
/home/jgilaber/drug_learning/drug_learning/datasets/SAR1/GHDDI

>  <s_m_Source_File>  (287) 
3C-like_protease_GHDDI_ligprep.sdf

>  <i_m_Source_File_Index>  (287) 
217

>  <s_m_subgroup_title>  (287) 
3C-like_protease_GHDDI_ligprep

>  <s_m_subgroupid>  (287) 
3C-like_protease_GHDDI_ligprep

>  <b_m_subgroup_collapsed>  (287) 
0

$$$$
13759
     RDKit          2D

 23 25  0  0  1  0  0  0  0  0999 V2000
   -6.0450   -2.1953    0.0000 C   0  0  0  0  0  0  0  0  0  0  0  0
   -5.1153   -1.0181    0.0000 C   0  0  0  0  0  0  0  0  0  0  0  0
   -5.6700    0.3756    0.0000 C   0  0  0  0  0  0  0  0  0  0  0  0
   -4.7404    1.5528    0.0000 C   0  0  0  0  0  0  0  0  0  0  0  0
   -5.2951    2.9465    0.0000 C   0  0  0  0  0  0  0  0  0  0  0  0
   -3.2561    1.3363    0.0000 C   0  0  0  0  0  0  0  0  0  0  0  0
   -2.7014   -0.0574    0.0000 N   0  0  0  0  0  0  0  0  0  0  0  0
   -3.6310   -1.2346    0.0000 C   0  0  0  0  0  0  0  0  0  0  0  0
   -1.2171   -0.2738    0.0000 S   0  0  0  0  0  0  0  0  0  0  0  0
   -1.0006    1.2105    0.0000 O   0  0  0  0  0  0  0  0  0  0  0  0
   -1.4336   -1.7581    0.0000 O   0  0  0  0  0  0  0  0  0  0  0  0
    0.2672   -0.4903    0.0000 C   0  0  0  0  0  0  0  0  0  0  0  0
    0.8219   -1.8840    0.0000 C   0  0  0  0  0  0  0  0  0  0  0  0
    2.3062   -2.1005    0.0000 C   0  0  0  0  0  0  0  0  0  0  0  0
    3.2358   -0.9232    0.0000 C   0  0  0  0  0  0  0  0  0  0  0  0
    4.7326   -0.8264    0.0000 N   0  0  0  0  0  0  0  0  0  0  0  0
    5.6908   -1.9804    0.0000 C   0  0  0  0  0  0  0  0  0  0  0  0
    5.1031    0.6271    0.0000 C   0  0  0  0  0  0  0  0  0  0  0  0
    6.4968    1.1818    0.0000 O   0  0  0  0  0  0  0  0  0  0  0  0
    3.8352    1.4286    0.0000 C   0  0  0  0  0  0  0  0  0  0  0  0
    3.7383    2.9255    0.0000 O   0  0  0  0  0  0  0  0  0  0  0  0
    2.6811    0.4704    0.0000 C   0  0  0  0  0  0  0  0  0  0  0  0
    1.1968    0.6869    0.0000 C   0  0  0  0  0  0  0  0  0  0  0  0
  1  2  1  0
  2  3  1  0
  2  8  1  0
  3  4  1  0
  4  5  1  0
  4  6  1  0
  6  7  1  0
  7  8  1  0
  7  9  1  0
  9 10  2  0
  9 11  2  0
  9 12  1  0
 12 13  2  0
 12 23  1  0
 13 14  1  0
 14 15  2  0
 15 16  1  0
 15 22  1  0
 16 17  1  0
 16 18  1  0
 18 19  2  0
 18 20  1  0
 20 21  2  0
 20 22  1  0
 22 23  2  0
M  END
>  <s_m_entry_id>  (288) 
607

>  <s_m_entry_name>  (288) 
3C-like_protease_GHDDI_ligprep.226

>  <s_m_Source_Path>  (288) 
/home/jgilaber/drug_learning/drug_learning/datasets/SAR1/GHDDI

>  <s_m_Source_File>  (288) 
3C-like_protease_GHDDI_ligprep.sdf

>  <i_m_Source_File_Index>  (288) 
226

>  <s_m_subgroup_title>  (288) 
3C-like_protease_GHDDI_ligprep

>  <s_m_subgroupid>  (288) 
3C-like_protease_GHDDI_ligprep

>  <b_m_subgroup_collapsed>  (288) 
0

$$$$
13760
     RDKit          2D

 30 33  0  0  1  0  0  0  0  0999 V2000
   -2.0124    7.1634    0.0000 C   0  0  0  0  0  0  0  0  0  0  0  0
   -2.9016    5.9554    0.0000 C   0  0  0  0  0  0  0  0  0  0  0  0
   -2.3000    4.5813    0.0000 C   0  0  0  0  0  0  0  0  0  0  0  0
   -0.8092    4.4152    0.0000 O   0  0  0  0  0  0  0  0  0  0  0  0
   -3.1891    3.3733    0.0000 N   0  0  0  0  0  0  0  0  0  0  0  0
   -2.5876    1.9992    0.0000 C   0  0  0  0  0  0  0  0  0  0  0  0
   -1.0968    1.8331    0.0000 C   0  0  0  0  0  0  0  0  0  0  0  0
   -0.4952    0.4591    0.0000 C   0  0  0  0  0  0  0  0  0  0  0  0
   -1.3844   -0.7490    0.0000 C   0  0  0  0  0  0  0  0  0  0  0  0
   -2.8751   -0.5829    0.0000 C   0  0  0  0  0  0  0  0  0  0  0  0
   -3.4767    0.7911    0.0000 C   0  0  0  0  0  0  0  0  0  0  0  0
   -0.7828   -2.1230    0.0000 N   0  0  0  0  0  0  0  0  0  0  0  0
   -1.6720   -3.3311    0.0000 C   0  0  0  0  0  0  0  0  0  0  0  0
   -3.1627   -3.1650    0.0000 C   0  0  0  0  0  0  0  0  0  0  0  0
   -4.1733   -4.2735    0.0000 C   0  0  0  0  0  0  0  0  0  0  0  0
   -5.5398   -3.6549    0.0000 C   0  0  0  0  0  0  0  0  0  0  0  0
   -5.3738   -2.1641    0.0000 S   0  0  0  0  0  0  0  0  0  0  0  0
   -3.9047   -1.8614    0.0000 C   0  0  0  0  0  0  0  0  0  0  0  0
    0.7080   -2.2891    0.0000 C   0  0  0  0  0  0  0  0  0  0  0  0
    1.3096   -3.6632    0.0000 O   0  0  0  0  0  0  0  0  0  0  0  0
    1.5972   -1.0811    0.0000 C   0  0  0  0  0  0  0  0  0  0  0  0
    3.0880   -1.2471    0.0000 N   0  0  0  0  0  0  0  0  0  0  0  0
    3.8299   -2.5508    0.0000 N   0  0  0  0  0  0  0  0  0  0  0  0
    5.2990   -2.2480    0.0000 N   0  0  0  0  0  0  0  0  0  0  0  0
    5.4651   -0.7572    0.0000 C   0  0  0  0  0  0  0  0  0  0  0  0
    6.6841    0.1169    0.0000 C   0  0  0  0  0  0  0  0  0  0  0  0
    6.5365    1.6096    0.0000 C   0  0  0  0  0  0  0  0  0  0  0  0
    5.1700    2.2282    0.0000 C   0  0  0  0  0  0  0  0  0  0  0  0
    3.9510    1.3541    0.0000 C   0  0  0  0  0  0  0  0  0  0  0  0
    4.0986   -0.1386    0.0000 C   0  0  0  0  0  0  0  0  0  0  0  0
  1  2  1  0
  2  3  1  0
  3  4  2  0
  3  5  1  0
  5  6  1  0
  6  7  2  0
  6 11  1  0
  7  8  1  0
  8  9  2  0
  9 10  1  0
  9 12  1  0
 10 11  2  0
 12 13  1  0
 12 19  1  0
 13 14  1  0
 14 15  1  0
 14 18  2  0
 15 16  2  0
 16 17  1  0
 17 18  1  0
 19 20  2  0
 19 21  1  0
 21 22  1  0
 22 23  1  0
 22 30  1  0
 23 24  2  0
 24 25  1  0
 25 26  1  0
 25 30  2  0
 26 27  2  0
 27 28  1  0
 28 29  2  0
 29 30  1  0
M  END
>  <s_m_entry_id>  (289) 
610

>  <s_m_entry_name>  (289) 
3C-like_protease_GHDDI_ligprep.229

>  <s_m_Source_Path>  (289) 
/home/jgilaber/drug_learning/drug_learning/datasets/SAR1/GHDDI

>  <s_m_Source_File>  (289) 
3C-like_protease_GHDDI_ligprep.sdf

>  <i_m_Source_File_Index>  (289) 
229

>  <s_m_subgroup_title>  (289) 
3C-like_protease_GHDDI_ligprep

>  <s_m_subgroupid>  (289) 
3C-like_protease_GHDDI_ligprep

>  <b_m_subgroup_collapsed>  (289) 
0

$$$$
13762
     RDKit          2D

 48 51  0  0  1  0  0  0  0  0999 V2000
    4.6255    3.8273    0.0000 C   0  0  0  0  0  0  0  0  0  0  0  0
    3.3846    2.9846    0.0000 C   0  0  0  0  0  0  0  0  0  0  0  0
    2.0344    3.6379    0.0000 C   0  0  0  0  0  0  0  0  0  0  0  0
    3.4940    1.4886    0.0000 C   0  0  0  0  0  0  0  0  0  0  0  0
    4.8442    0.8353    0.0000 N   0  0  0  0  0  0  0  0  0  0  0  0
    6.0852    1.6780    0.0000 C   0  0  0  0  0  0  0  0  0  0  0  0
    5.9758    3.1740    0.0000 O   0  0  0  0  0  0  0  0  0  0  0  0
    7.4354    1.0247    0.0000 C   0  0  0  0  0  0  0  0  0  0  0  0
    8.7576    1.7331    0.0000 C   0  0  0  0  0  0  0  0  0  0  0  0
    9.8399    0.6945    0.0000 C   0  0  0  0  0  0  0  0  0  0  0  0
   11.3163    0.9597    0.0000 C   0  0  0  0  0  0  0  0  0  0  0  0
    9.1866   -0.6557    0.0000 O   0  0  0  0  0  0  0  0  0  0  0  0
    7.7005   -0.4516    0.0000 N   0  0  0  0  0  0  0  0  0  0  0  0
    2.2531    0.6459    0.0000 C   0  0  0  0  0  0  0  0  0  0  0  0
    0.9028    1.2992    0.0000 O   0  0  0  0  0  0  0  0  0  0  0  0
    2.3624   -0.8501    0.0000 N   0  0  0  0  0  0  0  0  0  0  0  0
    1.1215   -1.6928    0.0000 C   0  0  0  0  0  0  0  0  0  0  0  0
    1.2309   -3.1888    0.0000 C   0  0  0  0  0  0  0  0  0  0  0  0
    2.5811   -3.8421    0.0000 C   0  0  0  0  0  0  0  0  0  0  0  0
    2.6905   -5.3381    0.0000 C   0  0  0  0  0  0  0  0  0  0  0  0
    4.0408   -5.9914    0.0000 C   0  0  0  0  0  0  0  0  0  0  0  0
    5.2817   -5.1487    0.0000 C   0  0  0  0  0  0  0  0  0  0  0  0
    5.1723   -3.6527    0.0000 C   0  0  0  0  0  0  0  0  0  0  0  0
    3.8220   -2.9994    0.0000 C   0  0  0  0  0  0  0  0  0  0  0  0
   -0.2287   -1.0395    0.0000 C   0  0  0  0  0  0  0  0  0  0  0  0
   -1.4696   -1.8822    0.0000 O   0  0  0  0  0  0  0  0  0  0  0  0
   -0.3381    0.4565    0.0000 N   0  0  0  0  0  0  0  0  0  0  0  0
   -1.6883    1.1098    0.0000 C   0  0  0  0  0  0  0  0  0  0  0  0
   -1.7977    2.6058    0.0000 C   0  0  0  0  0  0  0  0  0  0  0  0
   -3.1479    3.2591    0.0000 C   0  0  0  0  0  0  0  0  0  0  0  0
   -3.2573    4.7551    0.0000 C   0  0  0  0  0  0  0  0  0  0  0  0
   -4.6076    5.4084    0.0000 C   0  0  0  0  0  0  0  0  0  0  0  0
   -5.8485    4.5657    0.0000 C   0  0  0  0  0  0  0  0  0  0  0  0
   -5.7391    3.0697    0.0000 C   0  0  0  0  0  0  0  0  0  0  0  0
   -4.3889    2.4164    0.0000 C   0  0  0  0  0  0  0  0  0  0  0  0
   -2.9292    0.2671    0.0000 C   0  0  0  0  0  0  0  0  0  0  0  0
   -2.8199   -1.2289    0.0000 O   0  0  0  0  0  0  0  0  0  0  0  0
   -4.2795    0.9204    0.0000 N   0  0  0  0  0  0  0  0  0  0  0  0
   -5.5204    0.0777    0.0000 C   0  0  0  0  0  0  0  0  0  0  0  0
   -6.8707    0.7310    0.0000 C   0  0  0  0  0  0  0  0  0  0  0  0
   -8.1116   -0.1117    0.0000 C   0  0  0  0  0  0  0  0  0  0  0  0
   -8.0022   -1.6077    0.0000 C   0  0  0  0  0  0  0  0  0  0  0  0
   -6.6520   -2.2610    0.0000 C   0  0  0  0  0  0  0  0  0  0  0  0
   -5.4111   -1.4183    0.0000 C   0  0  0  0  0  0  0  0  0  0  0  0
   -4.0608   -2.0716    0.0000 Cl  0  0  0  0  0  0  0  0  0  0  0  0
   -9.2431   -2.4504    0.0000 N   0  0  0  0  0  0  0  0  0  0  0  0
   -9.1338   -3.9464    0.0000 O   0  0  0  0  0  0  0  0  0  0  0  0
  -10.5934   -1.7971    0.0000 O   0  0  0  0  0  0  0  0  0  0  0  0
  1  2  1  0
  2  3  1  0
  2  4  1  0
  4  5  1  0
  4 14  1  0
  5  6  1  0
  6  7  2  0
  6  8  1  0
  8  9  1  0
  8 13  2  0
  9 10  2  0
 10 11  1  0
 10 12  1  0
 12 13  1  0
 14 15  2  0
 14 16  1  0
 16 17  1  0
 17 18  1  0
 17 25  1  0
 18 19  1  0
 19 20  2  0
 19 24  1  0
 20 21  1  0
 21 22  2  0
 22 23  1  0
 23 24  2  0
 25 26  2  0
 25 27  1  0
 27 28  1  0
 28 29  1  0
 28 36  1  0
 29 30  1  0
 30 31  2  0
 30 35  1  0
 31 32  1  0
 32 33  2  0
 33 34  1  0
 34 35  2  0
 36 37  2  0
 36 38  1  0
 38 39  1  0
 39 40  2  0
 39 44  1  0
 40 41  1  0
 41 42  2  0
 42 43  1  0
 42 46  1  0
 43 44  2  0
 44 45  1  0
 46 47  2  0
 46 48  1  0
M  CHG  2  46   1  48  -1
M  END
>  <s_m_entry_id>  (290) 
612

>  <s_m_entry_name>  (290) 
3C-like_protease_GHDDI_ligprep.231

>  <s_m_Source_Path>  (290) 
/home/jgilaber/drug_learning/drug_learning/datasets/SAR1/GHDDI

>  <s_m_Source_File>  (290) 
3C-like_protease_GHDDI_ligprep.sdf

>  <i_m_Source_File_Index>  (290) 
231

>  <s_m_subgroup_title>  (290) 
3C-like_protease_GHDDI_ligprep

>  <s_m_subgroupid>  (290) 
3C-like_protease_GHDDI_ligprep

>  <b_m_subgroup_collapsed>  (290) 
0

$$$$
13763
     RDKit          2D

 51 54  0  0  1  0  0  0  0  0999 V2000
   -1.5524    1.7965    0.0000 O   0  0  0  0  0  0  0  0  0  0  0  0
   -0.6597    0.5911    0.0000 C   0  0  0  0  0  0  0  0  0  0  0  0
   -1.2572   -0.7847    0.0000 C   0  0  0  0  0  0  0  0  0  0  0  0
   -2.7475   -0.9552    0.0000 C   0  0  0  0  0  0  0  0  0  0  0  0
   -3.6402    0.2503    0.0000 O   0  0  0  0  0  0  0  0  0  0  0  0
   -3.3450   -2.3310    0.0000 N   0  0  0  0  0  0  0  0  0  0  0  0
   -4.8353   -2.5014    0.0000 C   0  0  0  0  0  0  0  0  0  0  0  0
   -5.4329   -3.8773    0.0000 C   0  0  0  0  0  0  0  0  0  0  0  0
   -4.5401   -5.0827    0.0000 C   0  0  0  0  0  0  0  0  0  0  0  0
   -5.1377   -6.4585    0.0000 C   0  0  0  0  0  0  0  0  0  0  0  0
   -4.2449   -7.6639    0.0000 C   0  0  0  0  0  0  0  0  0  0  0  0
   -2.7546   -7.4935    0.0000 C   0  0  0  0  0  0  0  0  0  0  0  0
   -2.1571   -6.1177    0.0000 C   0  0  0  0  0  0  0  0  0  0  0  0
   -3.0498   -4.9122    0.0000 C   0  0  0  0  0  0  0  0  0  0  0  0
   -5.7281   -1.2960    0.0000 C   0  0  0  0  0  0  0  0  0  0  0  0
   -7.2184   -1.4665    0.0000 O   0  0  0  0  0  0  0  0  0  0  0  0
   -5.1305    0.0798    0.0000 N   0  0  0  0  0  0  0  0  0  0  0  0
   -6.0233    1.2852    0.0000 C   0  0  0  0  0  0  0  0  0  0  0  0
   -5.4257    2.6611    0.0000 C   0  0  0  0  0  0  0  0  0  0  0  0
   -6.3185    3.8665    0.0000 C   0  0  0  0  0  0  0  0  0  0  0  0
   -7.8088    3.6960    0.0000 C   0  0  0  0  0  0  0  0  0  0  0  0
   -8.4063    2.3202    0.0000 C   0  0  0  0  0  0  0  0  0  0  0  0
   -7.5136    1.1148    0.0000 C   0  0  0  0  0  0  0  0  0  0  0  0
   -8.1111   -0.2610    0.0000 Cl  0  0  0  0  0  0  0  0  0  0  0  0
   -8.7015    4.9015    0.0000 N   0  0  0  0  0  0  0  0  0  0  0  0
  -10.1918    4.7310    0.0000 O   0  0  0  0  0  0  0  0  0  0  0  0
   -8.1040    6.2773    0.0000 O   0  0  0  0  0  0  0  0  0  0  0  0
    0.8306    0.7616    0.0000 C   0  0  0  0  0  0  0  0  0  0  0  0
    1.7234   -0.4438    0.0000 O   0  0  0  0  0  0  0  0  0  0  0  0
    1.4282    2.1374    0.0000 N   0  0  0  0  0  0  0  0  0  0  0  0
    2.9184    2.3078    0.0000 C   0  0  0  0  0  0  0  0  0  0  0  0
    3.5160    3.6837    0.0000 C   0  0  0  0  0  0  0  0  0  0  0  0
    5.0063    3.8541    0.0000 C   0  0  0  0  0  0  0  0  0  0  0  0
    5.8990    2.6487    0.0000 C   0  0  0  0  0  0  0  0  0  0  0  0
    7.3893    2.8191    0.0000 C   0  0  0  0  0  0  0  0  0  0  0  0
    7.9868    4.1950    0.0000 C   0  0  0  0  0  0  0  0  0  0  0  0
    7.0941    5.4004    0.0000 C   0  0  0  0  0  0  0  0  0  0  0  0
    5.6038    5.2300    0.0000 C   0  0  0  0  0  0  0  0  0  0  0  0
    3.8112    1.1024    0.0000 C   0  0  0  0  0  0  0  0  0  0  0  0
    3.2136   -0.2734    0.0000 O   0  0  0  0  0  0  0  0  0  0  0  0
    5.3015    1.2729    0.0000 N   0  0  0  0  0  0  0  0  0  0  0  0
    6.1942    0.0675    0.0000 C   0  0  0  0  0  0  0  0  0  0  0  0
    5.5967   -1.3084    0.0000 C   0  0  0  0  0  0  0  0  0  0  0  0
    6.4894   -2.5138    0.0000 C   0  0  0  0  0  0  0  0  0  0  0  0
    7.9797   -2.3434    0.0000 C   0  0  0  0  0  0  0  0  0  0  0  0
    8.5772   -0.9675    0.0000 C   0  0  0  0  0  0  0  0  0  0  0  0
    7.6845    0.2379    0.0000 C   0  0  0  0  0  0  0  0  0  0  0  0
    8.2820    1.6137    0.0000 Cl  0  0  0  0  0  0  0  0  0  0  0  0
    8.8724   -3.5488    0.0000 N   0  0  0  0  0  0  0  0  0  0  0  0
   10.3627   -3.3783    0.0000 O   0  0  0  0  0  0  0  0  0  0  0  0
    8.2749   -4.9246    0.0000 O   0  0  0  0  0  0  0  0  0  0  0  0
  1  2  1  0
  2  3  1  0
  2 28  1  0
  3  4  1  0
  4  5  2  0
  4  6  1  0
  6  7  1  0
  7  8  1  0
  7 15  1  0
  8  9  1  0
  9 10  2  0
  9 14  1  0
 10 11  1  0
 11 12  2  0
 12 13  1  0
 13 14  2  0
 15 16  2  0
 15 17  1  0
 17 18  1  0
 18 19  2  0
 18 23  1  0
 19 20  1  0
 20 21  2  0
 21 22  1  0
 21 25  1  0
 22 23  2  0
 23 24  1  0
 25 26  2  0
 25 27  1  0
 28 29  2  0
 28 30  1  0
 30 31  1  0
 31 32  1  0
 31 39  1  0
 32 33  1  0
 33 34  2  0
 33 38  1  0
 34 35  1  0
 35 36  2  0
 36 37  1  0
 37 38  2  0
 39 40  2  0
 39 41  1  0
 41 42  1  0
 42 43  2  0
 42 47  1  0
 43 44  1  0
 44 45  2  0
 45 46  1  0
 45 49  1  0
 46 47  2  0
 47 48  1  0
 49 50  2  0
 49 51  1  0
M  CHG  4  25   1  27  -1  49   1  51  -1
M  END
>  <s_m_entry_id>  (291) 
613

>  <s_m_entry_name>  (291) 
3C-like_protease_GHDDI_ligprep.232

>  <s_m_Source_Path>  (291) 
/home/jgilaber/drug_learning/drug_learning/datasets/SAR1/GHDDI

>  <s_m_Source_File>  (291) 
3C-like_protease_GHDDI_ligprep.sdf

>  <i_m_Source_File_Index>  (291) 
232

>  <s_m_subgroup_title>  (291) 
3C-like_protease_GHDDI_ligprep

>  <s_m_subgroupid>  (291) 
3C-like_protease_GHDDI_ligprep

>  <b_m_subgroup_collapsed>  (291) 
0

$$$$
13767
     RDKit          2D

 32 35  0  0  1  0  0  0  0  0999 V2000
    7.8291   -5.0394    0.0000 C   0  0  0  0  0  0  0  0  0  0  0  0
    7.5417   -3.5672    0.0000 O   0  0  0  0  0  0  0  0  0  0  0  0
    6.1230   -3.0801    0.0000 C   0  0  0  0  0  0  0  0  0  0  0  0
    5.8355   -1.6079    0.0000 C   0  0  0  0  0  0  0  0  0  0  0  0
    4.4168   -1.1207    0.0000 C   0  0  0  0  0  0  0  0  0  0  0  0
    3.2856   -2.1058    0.0000 O   0  0  0  0  0  0  0  0  0  0  0  0
    4.1293    0.3515    0.0000 N   0  0  0  0  0  0  0  0  0  0  0  0
    2.7106    0.8386    0.0000 C   0  0  0  0  0  0  0  0  0  0  0  0
    1.5794   -0.1464    0.0000 C   0  0  0  0  0  0  0  0  0  0  0  0
    0.1607    0.3407    0.0000 C   0  0  0  0  0  0  0  0  0  0  0  0
   -0.1267    1.8129    0.0000 C   0  0  0  0  0  0  0  0  0  0  0  0
    1.0045    2.7980    0.0000 C   0  0  0  0  0  0  0  0  0  0  0  0
    2.4232    2.3108    0.0000 C   0  0  0  0  0  0  0  0  0  0  0  0
   -1.5454    2.3000    0.0000 N   0  0  0  0  0  0  0  0  0  0  0  0
   -1.8329    3.7722    0.0000 C   0  0  0  0  0  0  0  0  0  0  0  0
   -0.7017    4.7573    0.0000 C   0  0  0  0  0  0  0  0  0  0  0  0
   -0.8337    6.2515    0.0000 C   0  0  0  0  0  0  0  0  0  0  0  0
    0.5466    6.8387    0.0000 C   0  0  0  0  0  0  0  0  0  0  0  0
    1.5316    5.7075    0.0000 S   0  0  0  0  0  0  0  0  0  0  0  0
    0.7602    4.4211    0.0000 C   0  0  0  0  0  0  0  0  0  0  0  0
   -2.6767    1.3150    0.0000 C   0  0  0  0  0  0  0  0  0  0  0  0
   -4.0954    1.8021    0.0000 O   0  0  0  0  0  0  0  0  0  0  0  0
   -2.3892   -0.1572    0.0000 C   0  0  0  0  0  0  0  0  0  0  0  0
   -3.5204   -1.1423    0.0000 N   0  0  0  0  0  0  0  0  0  0  0  0
   -4.9823   -0.8061    0.0000 N   0  0  0  0  0  0  0  0  0  0  0  0
   -5.7537   -2.0925    0.0000 N   0  0  0  0  0  0  0  0  0  0  0  0
   -4.7687   -3.2237    0.0000 C   0  0  0  0  0  0  0  0  0  0  0  0
   -4.9502   -4.7127    0.0000 C   0  0  0  0  0  0  0  0  0  0  0  0
   -3.7515   -5.6144    0.0000 C   0  0  0  0  0  0  0  0  0  0  0  0
   -2.3712   -5.0271    0.0000 C   0  0  0  0  0  0  0  0  0  0  0  0
   -2.1897   -3.5381    0.0000 C   0  0  0  0  0  0  0  0  0  0  0  0
   -3.3884   -2.6364    0.0000 C   0  0  0  0  0  0  0  0  0  0  0  0
  1  2  1  0
  2  3  1  0
  3  4  1  0
  4  5  1  0
  5  6  2  0
  5  7  1  0
  7  8  1  0
  8  9  2  0
  8 13  1  0
  9 10  1  0
 10 11  2  0
 11 12  1  0
 11 14  1  0
 12 13  2  0
 14 15  1  0
 14 21  1  0
 15 16  1  0
 16 17  1  0
 16 20  2  0
 17 18  2  0
 18 19  1  0
 19 20  1  0
 21 22  2  0
 21 23  1  0
 23 24  1  0
 24 25  1  0
 24 32  1  0
 25 26  2  0
 26 27  1  0
 27 28  1  0
 27 32  2  0
 28 29  2  0
 29 30  1  0
 30 31  2  0
 31 32  1  0
M  END
>  <s_m_entry_id>  (292) 
618

>  <s_m_entry_name>  (292) 
3C-like_protease_GHDDI_ligprep.237

>  <s_m_Source_Path>  (292) 
/home/jgilaber/drug_learning/drug_learning/datasets/SAR1/GHDDI

>  <s_m_Source_File>  (292) 
3C-like_protease_GHDDI_ligprep.sdf

>  <i_m_Source_File_Index>  (292) 
237

>  <s_m_subgroup_title>  (292) 
3C-like_protease_GHDDI_ligprep

>  <s_m_subgroupid>  (292) 
3C-like_protease_GHDDI_ligprep

>  <b_m_subgroup_collapsed>  (292) 
0

$$$$
13768
     RDKit          2D

 38 42  0  0  1  0  0  0  0  0999 V2000
   -6.9518    2.1475    0.0000 C   0  0  0  0  0  0  0  0  0  0  0  0
   -6.2986    0.7972    0.0000 C   0  0  0  0  0  0  0  0  0  0  0  0
   -5.6455   -0.5531    0.0000 C   0  0  0  0  0  0  0  0  0  0  0  0
   -7.6490    0.1440    0.0000 C   0  0  0  0  0  0  0  0  0  0  0  0
   -4.9483    1.4504    0.0000 N   0  0  0  0  0  0  0  0  0  0  0  0
   -3.7075    0.6075    0.0000 C   0  0  0  0  0  0  0  0  0  0  0  0
   -3.8170   -0.8885    0.0000 O   0  0  0  0  0  0  0  0  0  0  0  0
   -2.3572    1.2607    0.0000 C   0  0  0  0  0  0  0  0  0  0  0  0
   -1.1164    0.4179    0.0000 N   0  0  0  0  0  0  0  0  0  0  0  0
   -1.2259   -1.0781    0.0000 C   0  0  0  0  0  0  0  0  0  0  0  0
   -2.5762   -1.7313    0.0000 O   0  0  0  0  0  0  0  0  0  0  0  0
    0.0150   -1.9210    0.0000 C   0  0  0  0  0  0  0  0  0  0  0  0
   -0.0946   -3.4170    0.0000 N   0  0  0  0  0  0  0  0  0  0  0  0
   -1.3692   -4.2077    0.0000 N   0  0  0  0  0  0  0  0  0  0  0  0
   -1.0111   -5.6643    0.0000 N   0  0  0  0  0  0  0  0  0  0  0  0
    0.4849   -5.7738    0.0000 C   0  0  0  0  0  0  0  0  0  0  0  0
    1.4046   -6.9588    0.0000 C   0  0  0  0  0  0  0  0  0  0  0  0
    2.8906   -6.7549    0.0000 C   0  0  0  0  0  0  0  0  0  0  0  0
    3.4571   -5.3660    0.0000 C   0  0  0  0  0  0  0  0  0  0  0  0
    2.5374   -4.1810    0.0000 C   0  0  0  0  0  0  0  0  0  0  0  0
    1.0514   -4.3849    0.0000 C   0  0  0  0  0  0  0  0  0  0  0  0
    0.2340    1.0710    0.0000 C   0  0  0  0  0  0  0  0  0  0  0  0
    1.4748    0.2282    0.0000 C   0  0  0  0  0  0  0  0  0  0  0  0
    2.8251    0.8814    0.0000 C   0  0  0  0  0  0  0  0  0  0  0  0
    2.9346    2.3773    0.0000 C   0  0  0  0  0  0  0  0  0  0  0  0
    4.2849    3.0305    0.0000 N   0  0  0  0  0  0  0  0  0  0  0  0
    5.5258    2.1877    0.0000 C   0  0  0  0  0  0  0  0  0  0  0  0
    5.4163    0.6917    0.0000 O   0  0  0  0  0  0  0  0  0  0  0  0
    6.8761    2.8408    0.0000 C   0  0  0  0  0  0  0  0  0  0  0  0
    7.7189    4.0817    0.0000 C   0  0  0  0  0  0  0  0  0  0  0  0
    8.3721    2.7313    0.0000 C   0  0  0  0  0  0  0  0  0  0  0  0
    1.6938    3.2202    0.0000 C   0  0  0  0  0  0  0  0  0  0  0  0
    0.3435    2.5670    0.0000 C   0  0  0  0  0  0  0  0  0  0  0  0
   -2.2477    2.7567    0.0000 C   0  0  0  0  0  0  0  0  0  0  0  0
   -3.3936    3.7246    0.0000 C   0  0  0  0  0  0  0  0  0  0  0  0
   -2.8272    5.1136    0.0000 C   0  0  0  0  0  0  0  0  0  0  0  0
   -1.3312    5.0040    0.0000 S   0  0  0  0  0  0  0  0  0  0  0  0
   -0.9730    3.5474    0.0000 C   0  0  0  0  0  0  0  0  0  0  0  0
  1  2  1  0
  2  3  1  0
  2  4  1  0
  2  5  1  0
  5  6  1  0
  6  7  2  0
  6  8  1  0
  8  9  1  0
  8 34  1  0
  9 10  1  0
  9 22  1  0
 10 11  2  0
 10 12  1  0
 12 13  1  0
 13 14  1  0
 13 21  1  0
 14 15  2  0
 15 16  1  0
 16 17  1  0
 16 21  2  0
 17 18  2  0
 18 19  1  0
 19 20  2  0
 20 21  1  0
 22 23  2  0
 22 33  1  0
 23 24  1  0
 24 25  2  0
 25 26  1  0
 25 32  1  0
 26 27  1  0
 27 28  2  0
 27 29  1  0
 29 30  1  0
 29 31  1  0
 30 31  1  0
 32 33  2  0
 34 35  1  0
 34 38  2  0
 35 36  2  0
 36 37  1  0
 37 38  1  0
M  END
>  <s_m_entry_id>  (293) 
619

>  <s_m_entry_name>  (293) 
3C-like_protease_GHDDI_ligprep.238

>  <s_m_Source_Path>  (293) 
/home/jgilaber/drug_learning/drug_learning/datasets/SAR1/GHDDI

>  <s_m_Source_File>  (293) 
3C-like_protease_GHDDI_ligprep.sdf

>  <i_m_Source_File_Index>  (293) 
238

>  <s_m_subgroup_title>  (293) 
3C-like_protease_GHDDI_ligprep

>  <s_m_subgroupid>  (293) 
3C-like_protease_GHDDI_ligprep

>  <b_m_subgroup_collapsed>  (293) 
0

$$$$
13771
     RDKit          2D

 31 34  0  0  1  0  0  0  0  0999 V2000
   -3.2047    6.4617    0.0000 C   0  0  0  0  0  0  0  0  0  0  0  0
   -3.8388    5.1023    0.0000 C   0  0  0  0  0  0  0  0  0  0  0  0
   -5.3331    4.9718    0.0000 C   0  0  0  0  0  0  0  0  0  0  0  0
   -2.9786    3.8735    0.0000 C   0  0  0  0  0  0  0  0  0  0  0  0
   -1.4843    4.0040    0.0000 O   0  0  0  0  0  0  0  0  0  0  0  0
   -3.6127    2.5141    0.0000 N   0  0  0  0  0  0  0  0  0  0  0  0
   -2.7525    1.2853    0.0000 C   0  0  0  0  0  0  0  0  0  0  0  0
   -1.2582    1.4158    0.0000 C   0  0  0  0  0  0  0  0  0  0  0  0
   -0.3980    0.1869    0.0000 C   0  0  0  0  0  0  0  0  0  0  0  0
   -1.0322   -1.1724    0.0000 C   0  0  0  0  0  0  0  0  0  0  0  0
   -2.5265   -1.3030    0.0000 C   0  0  0  0  0  0  0  0  0  0  0  0
   -3.3867   -0.0741    0.0000 C   0  0  0  0  0  0  0  0  0  0  0  0
   -0.1720   -2.4013    0.0000 N   0  0  0  0  0  0  0  0  0  0  0  0
   -0.8061   -3.7607    0.0000 C   0  0  0  0  0  0  0  0  0  0  0  0
   -2.3004   -3.8912    0.0000 C   0  0  0  0  0  0  0  0  0  0  0  0
   -3.0732   -5.1768    0.0000 C   0  0  0  0  0  0  0  0  0  0  0  0
   -4.5347   -4.8392    0.0000 C   0  0  0  0  0  0  0  0  0  0  0  0
   -4.6652   -3.3449    0.0000 S   0  0  0  0  0  0  0  0  0  0  0  0
   -3.2843   -2.7590    0.0000 C   0  0  0  0  0  0  0  0  0  0  0  0
    1.3223   -2.2708    0.0000 C   0  0  0  0  0  0  0  0  0  0  0  0
    2.1825   -3.4996    0.0000 O   0  0  0  0  0  0  0  0  0  0  0  0
    1.9565   -0.9114    0.0000 C   0  0  0  0  0  0  0  0  0  0  0  0
    3.4508   -0.7809    0.0000 N   0  0  0  0  0  0  0  0  0  0  0  0
    4.4347   -1.9131    0.0000 N   0  0  0  0  0  0  0  0  0  0  0  0
    5.8155   -1.3272    0.0000 N   0  0  0  0  0  0  0  0  0  0  0  0
    5.6850    0.1671    0.0000 C   0  0  0  0  0  0  0  0  0  0  0  0
    6.7082    1.2640    0.0000 C   0  0  0  0  0  0  0  0  0  0  0  0
    6.2698    2.6985    0.0000 C   0  0  0  0  0  0  0  0  0  0  0  0
    4.8083    3.0362    0.0000 C   0  0  0  0  0  0  0  0  0  0  0  0
    3.7852    1.9393    0.0000 C   0  0  0  0  0  0  0  0  0  0  0  0
    4.2235    0.5048    0.0000 C   0  0  0  0  0  0  0  0  0  0  0  0
  1  2  1  0
  2  3  1  0
  2  4  1  0
  4  5  2  0
  4  6  1  0
  6  7  1  0
  7  8  2  0
  7 12  1  0
  8  9  1  0
  9 10  2  0
 10 11  1  0
 10 13  1  0
 11 12  2  0
 13 14  1  0
 13 20  1  0
 14 15  1  0
 15 16  1  0
 15 19  2  0
 16 17  2  0
 17 18  1  0
 18 19  1  0
 20 21  2  0
 20 22  1  0
 22 23  1  0
 23 24  1  0
 23 31  1  0
 24 25  2  0
 25 26  1  0
 26 27  1  0
 26 31  2  0
 27 28  2  0
 28 29  1  0
 29 30  2  0
 30 31  1  0
M  END
>  <s_m_entry_id>  (294) 
624

>  <s_m_entry_name>  (294) 
3C-like_protease_GHDDI_ligprep.243

>  <s_m_Source_Path>  (294) 
/home/jgilaber/drug_learning/drug_learning/datasets/SAR1/GHDDI

>  <s_m_Source_File>  (294) 
3C-like_protease_GHDDI_ligprep.sdf

>  <i_m_Source_File_Index>  (294) 
243

>  <s_m_subgroup_title>  (294) 
3C-like_protease_GHDDI_ligprep

>  <s_m_subgroupid>  (294) 
3C-like_protease_GHDDI_ligprep

>  <b_m_subgroup_collapsed>  (294) 
0

$$$$
13772
     RDKit          2D

 37 42  0  0  1  0  0  0  0  0999 V2000
   -1.5352   -2.3715    0.0000 C   0  0  0  0  0  0  0  0  0  0  0  0
   -1.1308   -0.9271    0.0000 C   0  0  0  0  0  0  0  0  0  0  0  0
   -2.1795    0.1454    0.0000 N   0  0  0  0  0  0  0  0  0  0  0  0
   -1.9282    1.6242    0.0000 C   0  0  0  0  0  0  0  0  0  0  0  0
   -0.5841    2.2902    0.0000 C   0  0  0  0  0  0  0  0  0  0  0  0
    0.6646    1.4591    0.0000 C   0  0  0  0  0  0  0  0  0  0  0  0
    2.0087    2.1251    0.0000 C   0  0  0  0  0  0  0  0  0  0  0  0
    3.2575    1.2940    0.0000 C   0  0  0  0  0  0  0  0  0  0  0  0
    3.3191   -0.2047    0.0000 N   0  0  0  0  0  0  0  0  0  0  0  0
    2.1429   -1.1355    0.0000 C   0  0  0  0  0  0  0  0  0  0  0  0
    2.3609   -2.6196    0.0000 C   0  0  0  0  0  0  0  0  0  0  0  0
    4.7636   -0.6092    0.0000 C   0  0  0  0  0  0  0  0  0  0  0  0
    5.4295   -1.9532    0.0000 C   0  0  0  0  0  0  0  0  0  0  0  0
    6.9265   -2.0485    0.0000 C   0  0  0  0  0  0  0  0  0  0  0  0
    7.7575   -0.7998    0.0000 C   0  0  0  0  0  0  0  0  0  0  0  0
    9.2545   -0.8951    0.0000 C   0  0  0  0  0  0  0  0  0  0  0  0
   10.0855    0.3537    0.0000 C   0  0  0  0  0  0  0  0  0  0  0  0
    9.4196    1.6977    0.0000 C   0  0  0  0  0  0  0  0  0  0  0  0
    7.9226    1.7930    0.0000 C   0  0  0  0  0  0  0  0  0  0  0  0
    7.0916    0.5443    0.0000 C   0  0  0  0  0  0  0  0  0  0  0  0
    5.5946    0.6396    0.0000 C   0  0  0  0  0  0  0  0  0  0  0  0
    4.6638    1.8158    0.0000 S   0  0  0  0  0  0  0  0  0  0  0  0
   -3.2570    2.3202    0.0000 S   0  0  0  0  0  0  0  0  0  0  0  0
   -4.3295    1.2715    0.0000 C   0  0  0  0  0  0  0  0  0  0  0  0
   -3.6635   -0.0726    0.0000 C   0  0  0  0  0  0  0  0  0  0  0  0
   -4.3595   -1.4014    0.0000 C   0  0  0  0  0  0  0  0  0  0  0  0
   -5.8582   -1.4631    0.0000 C   0  0  0  0  0  0  0  0  0  0  0  0
   -6.5542   -2.7919    0.0000 C   0  0  0  0  0  0  0  0  0  0  0  0
   -5.7514   -4.0589    0.0000 C   0  0  0  0  0  0  0  0  0  0  0  0
   -4.2526   -3.9973    0.0000 C   0  0  0  0  0  0  0  0  0  0  0  0
   -3.5567   -2.6685    0.0000 C   0  0  0  0  0  0  0  0  0  0  0  0
   -5.8083    1.5227    0.0000 C   0  0  0  0  0  0  0  0  0  0  0  0
   -6.3301    2.9291    0.0000 C   0  0  0  0  0  0  0  0  0  0  0  0
   -7.8089    3.1803    0.0000 C   0  0  0  0  0  0  0  0  0  0  0  0
   -8.7659    2.0253    0.0000 C   0  0  0  0  0  0  0  0  0  0  0  0
   -8.2441    0.6189    0.0000 C   0  0  0  0  0  0  0  0  0  0  0  0
   -6.7653    0.3677    0.0000 C   0  0  0  0  0  0  0  0  0  0  0  0
  1  2  1  0
  2  3  1  0
  3  4  2  0
  3 25  1  0
  4  5  1  0
  4 23  1  0
  5  6  1  0
  6  7  2  0
  7  8  1  0
  8  9  2  0
  8 22  1  0
  9 10  1  0
  9 12  1  0
 10 11  1  0
 12 13  2  0
 12 21  1  0
 13 14  1  0
 14 15  2  0
 15 16  1  0
 15 20  1  0
 16 17  2  0
 17 18  1  0
 18 19  2  0
 19 20  1  0
 20 21  2  0
 21 22  1  0
 23 24  1  0
 24 25  2  0
 24 32  1  0
 25 26  1  0
 26 27  2  0
 26 31  1  0
 27 28  1  0
 28 29  2  0
 29 30  1  0
 30 31  2  0
 32 33  2  0
 32 37  1  0
 33 34  1  0
 34 35  2  0
 35 36  1  0
 36 37  2  0
M  CHG  2   3   1   9   1
M  END
>  <s_m_entry_id>  (295) 
629

>  <s_m_entry_name>  (295) 
3C-like_protease_GHDDI_ligprep.248

>  <s_m_Source_Path>  (295) 
/home/jgilaber/drug_learning/drug_learning/datasets/SAR1/GHDDI

>  <s_m_Source_File>  (295) 
3C-like_protease_GHDDI_ligprep.sdf

>  <i_m_Source_File_Index>  (295) 
248

>  <s_m_subgroup_title>  (295) 
3C-like_protease_GHDDI_ligprep

>  <s_m_subgroupid>  (295) 
3C-like_protease_GHDDI_ligprep

>  <b_m_subgroup_collapsed>  (295) 
0

$$$$
13773
     RDKit          2D

 39 43  0  0  1  0  0  0  0  0999 V2000
   -6.8269    2.9958    0.0000 C   0  0  0  0  0  0  0  0  0  0  0  0
   -6.3601    1.5703    0.0000 C   0  0  0  0  0  0  0  0  0  0  0  0
   -5.8933    0.1447    0.0000 C   0  0  0  0  0  0  0  0  0  0  0  0
   -7.7856    1.1035    0.0000 C   0  0  0  0  0  0  0  0  0  0  0  0
   -4.9346    2.0371    0.0000 N   0  0  0  0  0  0  0  0  0  0  0  0
   -3.8176    1.0359    0.0000 C   0  0  0  0  0  0  0  0  0  0  0  0
   -4.1261   -0.4320    0.0000 O   0  0  0  0  0  0  0  0  0  0  0  0
   -2.3920    1.5027    0.0000 C   0  0  0  0  0  0  0  0  0  0  0  0
   -1.2750    0.5016    0.0000 N   0  0  0  0  0  0  0  0  0  0  0  0
   -1.5835   -0.9663    0.0000 C   0  0  0  0  0  0  0  0  0  0  0  0
   -3.0090   -1.4331    0.0000 O   0  0  0  0  0  0  0  0  0  0  0  0
   -0.4665   -1.9675    0.0000 C   0  0  0  0  0  0  0  0  0  0  0  0
   -0.7750   -3.4354    0.0000 N   0  0  0  0  0  0  0  0  0  0  0  0
   -2.1439   -4.0487    0.0000 N   0  0  0  0  0  0  0  0  0  0  0  0
   -1.9837   -5.5401    0.0000 N   0  0  0  0  0  0  0  0  0  0  0  0
   -0.5158   -5.8486    0.0000 C   0  0  0  0  0  0  0  0  0  0  0  0
    0.2372   -7.1459    0.0000 C   0  0  0  0  0  0  0  0  0  0  0  0
    1.7372   -7.1424    0.0000 C   0  0  0  0  0  0  0  0  0  0  0  0
    2.4842   -5.8417    0.0000 C   0  0  0  0  0  0  0  0  0  0  0  0
    1.7312   -4.5444    0.0000 C   0  0  0  0  0  0  0  0  0  0  0  0
    0.2313   -4.5478    0.0000 C   0  0  0  0  0  0  0  0  0  0  0  0
    0.1505    0.9684    0.0000 C   0  0  0  0  0  0  0  0  0  0  0  0
    1.2675   -0.0327    0.0000 C   0  0  0  0  0  0  0  0  0  0  0  0
    2.6930    0.4341    0.0000 C   0  0  0  0  0  0  0  0  0  0  0  0
    3.0015    1.9020    0.0000 C   0  0  0  0  0  0  0  0  0  0  0  0
    4.4270    2.3688    0.0000 N   0  0  0  0  0  0  0  0  0  0  0  0
    5.5441    1.3677    0.0000 C   0  0  0  0  0  0  0  0  0  0  0  0
    5.2356   -0.1003    0.0000 O   0  0  0  0  0  0  0  0  0  0  0  0
    6.9696    1.8345    0.0000 C   0  0  0  0  0  0  0  0  0  0  0  0
    8.3076    1.1565    0.0000 C   0  0  0  0  0  0  0  0  0  0  0  0
    8.9856    2.4946    0.0000 C   0  0  0  0  0  0  0  0  0  0  0  0
    7.6475    3.1725    0.0000 C   0  0  0  0  0  0  0  0  0  0  0  0
    1.8845    2.9031    0.0000 C   0  0  0  0  0  0  0  0  0  0  0  0
    0.4590    2.4363    0.0000 C   0  0  0  0  0  0  0  0  0  0  0  0
   -2.0835    2.9707    0.0000 C   0  0  0  0  0  0  0  0  0  0  0  0
   -3.0898    4.0831    0.0000 C   0  0  0  0  0  0  0  0  0  0  0  0
   -2.3428    5.3838    0.0000 C   0  0  0  0  0  0  0  0  0  0  0  0
   -0.8748    5.0753    0.0000 S   0  0  0  0  0  0  0  0  0  0  0  0
   -0.7146    3.5839    0.0000 C   0  0  0  0  0  0  0  0  0  0  0  0
  1  2  1  0
  2  3  1  0
  2  4  1  0
  2  5  1  0
  5  6  1  0
  6  7  2  0
  6  8  1  0
  8  9  1  0
  8 35  1  0
  9 10  1  0
  9 22  1  0
 10 11  2  0
 10 12  1  0
 12 13  1  0
 13 14  1  0
 13 21  1  0
 14 15  2  0
 15 16  1  0
 16 17  1  0
 16 21  2  0
 17 18  2  0
 18 19  1  0
 19 20  2  0
 20 21  1  0
 22 23  2  0
 22 34  1  0
 23 24  1  0
 24 25  2  0
 25 26  1  0
 25 33  1  0
 26 27  1  0
 27 28  2  0
 27 29  1  0
 29 30  1  0
 29 32  1  0
 30 31  1  0
 31 32  1  0
 33 34  2  0
 35 36  1  0
 35 39  2  0
 36 37  2  0
 37 38  1  0
 38 39  1  0
M  END
>  <s_m_entry_id>  (296) 
630

>  <s_m_entry_name>  (296) 
3C-like_protease_GHDDI_ligprep.249

>  <s_m_Source_Path>  (296) 
/home/jgilaber/drug_learning/drug_learning/datasets/SAR1/GHDDI

>  <s_m_Source_File>  (296) 
3C-like_protease_GHDDI_ligprep.sdf

>  <i_m_Source_File_Index>  (296) 
249

>  <s_m_subgroup_title>  (296) 
3C-like_protease_GHDDI_ligprep

>  <s_m_subgroupid>  (296) 
3C-like_protease_GHDDI_ligprep

>  <b_m_subgroup_collapsed>  (296) 
0

$$$$
13774
     RDKit          2D

 39 39  0  0  1  0  0  0  0  0999 V2000
    1.7542   -4.8241    0.0000 C   0  0  0  0  0  0  0  0  0  0  0  0
    1.0478   -3.5009    0.0000 C   0  0  0  0  0  0  0  0  0  0  0  0
    1.8406   -2.2275    0.0000 C   0  0  0  0  0  0  0  0  0  0  0  0
   -0.4514   -3.4510    0.0000 C   0  0  0  0  0  0  0  0  0  0  0  0
   -1.1578   -2.1278    0.0000 C   0  0  0  0  0  0  0  0  0  0  0  0
   -0.3650   -0.8544    0.0000 N   0  0  0  0  0  0  0  0  0  0  0  0
   -1.0714    0.4689    0.0000 C   0  0  0  0  0  0  0  0  0  0  0  0
   -2.5706    0.5187    0.0000 O   0  0  0  0  0  0  0  0  0  0  0  0
   -0.2787    1.7423    0.0000 C   0  0  0  0  0  0  0  0  0  0  0  0
    1.2205    1.6924    0.0000 N   0  0  0  0  0  0  0  0  0  0  0  0
    2.0133    2.9658    0.0000 C   0  0  0  0  0  0  0  0  0  0  0  0
    1.3069    4.2891    0.0000 O   0  0  0  0  0  0  0  0  0  0  0  0
    3.5125    2.9159    0.0000 C   0  0  0  0  0  0  0  0  0  0  0  0
    4.3052    4.1893    0.0000 C   0  0  0  0  0  0  0  0  0  0  0  0
    4.2189    1.5927    0.0000 N   0  0  0  0  0  0  0  0  0  0  0  0
    5.7180    1.5428    0.0000 C   0  0  0  0  0  0  0  0  0  0  0  0
    6.5108    2.8162    0.0000 O   0  0  0  0  0  0  0  0  0  0  0  0
    6.4244    0.2196    0.0000 C   0  0  0  0  0  0  0  0  0  0  0  0
    7.9236    0.1697    0.0000 C   0  0  0  0  0  0  0  0  0  0  0  0
    8.6300   -1.1535    0.0000 O   0  0  0  0  0  0  0  0  0  0  0  0
    5.6317   -1.0538    0.0000 N   0  0  0  0  0  0  0  0  0  0  0  0
    6.3381   -2.3771    0.0000 C   0  0  0  0  0  0  0  0  0  0  0  0
    7.8372   -2.4269    0.0000 O   0  0  0  0  0  0  0  0  0  0  0  0
    5.5453   -3.6504    0.0000 C   0  0  0  0  0  0  0  0  0  0  0  0
   -0.9851    3.0655    0.0000 C   0  0  0  0  0  0  0  0  0  0  0  0
   -0.1923    4.3389    0.0000 C   0  0  0  0  0  0  0  0  0  0  0  0
   -2.4842    3.1154    0.0000 C   0  0  0  0  0  0  0  0  0  0  0  0
   -2.6570   -2.0779    0.0000 C   0  0  0  0  0  0  0  0  0  0  0  0
   -3.4497   -3.3513    0.0000 O   0  0  0  0  0  0  0  0  0  0  0  0
   -3.3634   -0.7546    0.0000 N   0  0  0  0  0  0  0  0  0  0  0  0
   -4.8625   -0.7048    0.0000 C   0  0  0  0  0  0  0  0  0  0  0  0
   -5.5689    0.6185    0.0000 C   0  0  0  0  0  0  0  0  0  0  0  0
   -7.0681    0.6683    0.0000 C   0  0  0  0  0  0  0  0  0  0  0  0
   -7.9090    1.9105    0.0000 C   0  0  0  0  0  0  0  0  0  0  0  0
   -9.3502    1.4946    0.0000 N   0  0  0  0  0  0  0  0  0  0  0  0
   -9.4000   -0.0045    0.0000 C   0  0  0  0  0  0  0  0  0  0  0  0
   -7.9896   -0.5152    0.0000 N   0  0  0  0  0  0  0  0  0  0  0  0
   -5.6553   -1.9782    0.0000 C   0  0  0  0  0  0  0  0  0  0  0  0
   -4.9489   -3.3014    0.0000 O   0  0  0  0  0  0  0  0  0  0  0  0
  1  2  1  0
  2  3  1  0
  2  4  1  0
  4  5  1  0
  5  6  1  0
  5 28  1  0
  6  7  1  0
  7  8  2  0
  7  9  1  0
  9 10  1  0
  9 25  1  0
 10 11  1  0
 11 12  2  0
 11 13  1  0
 13 14  1  0
 13 15  1  0
 15 16  1  0
 16 17  2  0
 16 18  1  0
 18 19  1  0
 18 21  1  0
 19 20  1  0
 21 22  1  0
 22 23  2  0
 22 24  1  0
 25 26  1  0
 25 27  1  0
 28 29  2  0
 28 30  1  0
 30 31  1  0
 31 32  1  0
 31 38  1  0
 32 33  1  0
 33 34  2  0
 33 37  1  0
 34 35  1  0
 35 36  1  0
 36 37  2  0
 38 39  2  0
M  END
>  <s_m_entry_id>  (297) 
632

>  <s_m_entry_name>  (297) 
3C-like_protease_GHDDI_ligprep.251

>  <s_m_Source_Path>  (297) 
/home/jgilaber/drug_learning/drug_learning/datasets/SAR1/GHDDI

>  <s_m_Source_File>  (297) 
3C-like_protease_GHDDI_ligprep.sdf

>  <i_m_Source_File_Index>  (297) 
251

>  <s_m_subgroup_title>  (297) 
3C-like_protease_GHDDI_ligprep

>  <s_m_subgroupid>  (297) 
3C-like_protease_GHDDI_ligprep

>  <b_m_subgroup_collapsed>  (297) 
0

$$$$
13775
     RDKit          2D

 42 46  0  0  1  0  0  0  0  0999 V2000
    8.1765    3.9895    0.0000 C   0  0  0  0  0  0  0  0  0  0  0  0
    6.7507    4.4556    0.0000 C   0  0  0  0  0  0  0  0  0  0  0  0
    6.4415    5.9234    0.0000 C   0  0  0  0  0  0  0  0  0  0  0  0
    5.6342    3.4539    0.0000 C   0  0  0  0  0  0  0  0  0  0  0  0
    5.9434    1.9861    0.0000 O   0  0  0  0  0  0  0  0  0  0  0  0
    4.2085    3.9200    0.0000 N   0  0  0  0  0  0  0  0  0  0  0  0
    3.0919    2.9184    0.0000 C   0  0  0  0  0  0  0  0  0  0  0  0
    3.4011    1.4506    0.0000 C   0  0  0  0  0  0  0  0  0  0  0  0
    2.2846    0.4489    0.0000 C   0  0  0  0  0  0  0  0  0  0  0  0
    0.8589    0.9150    0.0000 C   0  0  0  0  0  0  0  0  0  0  0  0
    0.5497    2.3828    0.0000 C   0  0  0  0  0  0  0  0  0  0  0  0
    1.6662    3.3845    0.0000 C   0  0  0  0  0  0  0  0  0  0  0  0
   -0.2577   -0.0867    0.0000 N   0  0  0  0  0  0  0  0  0  0  0  0
   -1.6834    0.3794    0.0000 C   0  0  0  0  0  0  0  0  0  0  0  0
   -2.7999   -0.6223    0.0000 C   0  0  0  0  0  0  0  0  0  0  0  0
   -2.4907   -2.0900    0.0000 O   0  0  0  0  0  0  0  0  0  0  0  0
   -4.2257   -0.1562    0.0000 N   0  0  0  0  0  0  0  0  0  0  0  0
   -5.3422   -1.1578    0.0000 C   0  0  0  0  0  0  0  0  0  0  0  0
   -6.7680   -0.6917    0.0000 C   0  0  0  0  0  0  0  0  0  0  0  0
   -7.0772    0.7761    0.0000 C   0  0  0  0  0  0  0  0  0  0  0  0
   -8.5029    1.2422    0.0000 C   0  0  0  0  0  0  0  0  0  0  0  0
   -9.6194    0.2405    0.0000 C   0  0  0  0  0  0  0  0  0  0  0  0
   -9.3102   -1.2273    0.0000 C   0  0  0  0  0  0  0  0  0  0  0  0
   -7.8845   -1.6934    0.0000 C   0  0  0  0  0  0  0  0  0  0  0  0
   -1.9926    1.8472    0.0000 C   0  0  0  0  0  0  0  0  0  0  0  0
   -0.8761    2.8489    0.0000 C   0  0  0  0  0  0  0  0  0  0  0  0
   -1.1853    4.3167    0.0000 C   0  0  0  0  0  0  0  0  0  0  0  0
   -2.6110    4.7828    0.0000 C   0  0  0  0  0  0  0  0  0  0  0  0
   -3.7276    3.7811    0.0000 N   0  0  0  0  0  0  0  0  0  0  0  0
   -3.4184    2.3133    0.0000 C   0  0  0  0  0  0  0  0  0  0  0  0
    0.0516   -1.5545    0.0000 C   0  0  0  0  0  0  0  0  0  0  0  0
   -1.0650   -2.5561    0.0000 O   0  0  0  0  0  0  0  0  0  0  0  0
    1.4773   -2.0206    0.0000 C   0  0  0  0  0  0  0  0  0  0  0  0
    1.7865   -3.4884    0.0000 N   0  0  0  0  0  0  0  0  0  0  0  0
    0.7808   -4.6013    0.0000 N   0  0  0  0  0  0  0  0  0  0  0  0
    1.5285   -5.9016    0.0000 N   0  0  0  0  0  0  0  0  0  0  0  0
    2.9962   -5.5924    0.0000 C   0  0  0  0  0  0  0  0  0  0  0  0
    4.2082   -6.4763    0.0000 C   0  0  0  0  0  0  0  0  0  0  0  0
    5.5796   -5.8687    0.0000 C   0  0  0  0  0  0  0  0  0  0  0  0
    5.7391   -4.3772    0.0000 C   0  0  0  0  0  0  0  0  0  0  0  0
    4.5271   -3.4933    0.0000 C   0  0  0  0  0  0  0  0  0  0  0  0
    3.1557   -4.1009    0.0000 C   0  0  0  0  0  0  0  0  0  0  0  0
  1  2  1  0
  2  3  1  0
  2  4  1  0
  4  5  2  0
  4  6  1  0
  6  7  1  0
  7  8  2  0
  7 12  1  0
  8  9  1  0
  9 10  2  0
 10 11  1  0
 10 13  1  0
 11 12  2  0
 13 14  1  0
 13 31  1  0
 14 15  1  0
 14 25  1  0
 15 16  2  0
 15 17  1  0
 17 18  1  0
 18 19  1  0
 19 20  2  0
 19 24  1  0
 20 21  1  0
 21 22  2  0
 22 23  1  0
 23 24  2  0
 25 26  2  0
 25 30  1  0
 26 27  1  0
 27 28  2  0
 28 29  1  0
 29 30  2  0
 31 32  2  0
 31 33  1  0
 33 34  1  0
 34 35  1  0
 34 42  1  0
 35 36  2  0
 36 37  1  0
 37 38  1  0
 37 42  2  0
 38 39  2  0
 39 40  1  0
 40 41  2  0
 41 42  1  0
M  END
>  <s_m_entry_id>  (298) 
636

>  <s_m_entry_name>  (298) 
3C-like_protease_GHDDI_ligprep.255

>  <s_m_Source_Path>  (298) 
/home/jgilaber/drug_learning/drug_learning/datasets/SAR1/GHDDI

>  <s_m_Source_File>  (298) 
3C-like_protease_GHDDI_ligprep.sdf

>  <i_m_Source_File_Index>  (298) 
255

>  <s_m_subgroup_title>  (298) 
3C-like_protease_GHDDI_ligprep

>  <s_m_subgroupid>  (298) 
3C-like_protease_GHDDI_ligprep

>  <b_m_subgroup_collapsed>  (298) 
0

$$$$
13776
     RDKit          2D

 45 47  0  0  1  0  0  0  0  0999 V2000
    1.0184   -7.2803    0.0000 C   0  0  0  0  0  0  0  0  0  0  0  0
    0.6371   -5.8296    0.0000 C   0  0  0  0  0  0  0  0  0  0  0  0
    1.7027   -4.7740    0.0000 C   0  0  0  0  0  0  0  0  0  0  0  0
   -0.8100   -5.4345    0.0000 C   0  0  0  0  0  0  0  0  0  0  0  0
   -1.1913   -3.9838    0.0000 C   0  0  0  0  0  0  0  0  0  0  0  0
   -2.6384   -3.5887    0.0000 N   0  0  0  0  0  0  0  0  0  0  0  0
   -3.0198   -2.1380    0.0000 C   0  0  0  0  0  0  0  0  0  0  0  0
   -1.9541   -1.0824    0.0000 O   0  0  0  0  0  0  0  0  0  0  0  0
   -4.4668   -1.7429    0.0000 C   0  0  0  0  0  0  0  0  0  0  0  0
   -4.8482   -0.2922    0.0000 N   0  0  0  0  0  0  0  0  0  0  0  0
   -3.7825    0.7634    0.0000 C   0  0  0  0  0  0  0  0  0  0  0  0
   -2.3355    0.3683    0.0000 O   0  0  0  0  0  0  0  0  0  0  0  0
   -4.1639    2.2141    0.0000 C   0  0  0  0  0  0  0  0  0  0  0  0
   -3.0982    3.2697    0.0000 C   0  0  0  0  0  0  0  0  0  0  0  0
   -3.4796    4.7205    0.0000 C   0  0  0  0  0  0  0  0  0  0  0  0
   -4.9266    5.1155    0.0000 C   0  0  0  0  0  0  0  0  0  0  0  0
   -5.9923    4.0599    0.0000 C   0  0  0  0  0  0  0  0  0  0  0  0
   -5.6109    2.6092    0.0000 C   0  0  0  0  0  0  0  0  0  0  0  0
   -5.5325   -2.7986    0.0000 C   0  0  0  0  0  0  0  0  0  0  0  0
   -5.1511   -4.2493    0.0000 C   0  0  0  0  0  0  0  0  0  0  0  0
   -6.9795   -2.4035    0.0000 C   0  0  0  0  0  0  0  0  0  0  0  0
   -0.1257   -2.9282    0.0000 C   0  0  0  0  0  0  0  0  0  0  0  0
   -0.5070   -1.4775    0.0000 O   0  0  0  0  0  0  0  0  0  0  0  0
    1.3214   -3.3233    0.0000 N   0  0  0  0  0  0  0  0  0  0  0  0
    2.3870   -2.2676    0.0000 C   0  0  0  0  0  0  0  0  0  0  0  0
    3.8341   -2.6627    0.0000 C   0  0  0  0  0  0  0  0  0  0  0  0
    4.8997   -1.6071    0.0000 C   0  0  0  0  0  0  0  0  0  0  0  0
    6.3468   -2.0022    0.0000 C   0  0  0  0  0  0  0  0  0  0  0  0
    7.4124   -0.9465    0.0000 C   0  0  0  0  0  0  0  0  0  0  0  0
    7.0311    0.5042    0.0000 C   0  0  0  0  0  0  0  0  0  0  0  0
    5.5840    0.8993    0.0000 C   0  0  0  0  0  0  0  0  0  0  0  0
    4.5184   -0.1564    0.0000 C   0  0  0  0  0  0  0  0  0  0  0  0
    2.0057   -0.8169    0.0000 C   0  0  0  0  0  0  0  0  0  0  0  0
    0.5586   -0.4218    0.0000 O   0  0  0  0  0  0  0  0  0  0  0  0
    3.0713    0.2387    0.0000 N   0  0  0  0  0  0  0  0  0  0  0  0
    2.6900    1.6894    0.0000 C   0  0  0  0  0  0  0  0  0  0  0  0
    3.7556    2.7451    0.0000 C   0  0  0  0  0  0  0  0  0  0  0  0
    3.3743    4.1958    0.0000 C   0  0  0  0  0  0  0  0  0  0  0  0
    1.9272    4.5908    0.0000 C   0  0  0  0  0  0  0  0  0  0  0  0
    0.8616    3.5352    0.0000 C   0  0  0  0  0  0  0  0  0  0  0  0
    1.2429    2.0845    0.0000 C   0  0  0  0  0  0  0  0  0  0  0  0
    0.1773    1.0289    0.0000 Cl  0  0  0  0  0  0  0  0  0  0  0  0
    1.5459    6.0416    0.0000 N   0  0  0  0  0  0  0  0  0  0  0  0
    0.0988    6.4366    0.0000 O   0  0  0  0  0  0  0  0  0  0  0  0
    2.6115    7.0972    0.0000 O   0  0  0  0  0  0  0  0  0  0  0  0
  1  2  1  0
  2  3  1  0
  2  4  1  0
  4  5  1  0
  5  6  1  0
  5 22  1  0
  6  7  1  0
  7  8  2  0
  7  9  1  0
  9 10  1  0
  9 19  1  0
 10 11  1  0
 11 12  2  0
 11 13  1  0
 13 14  2  0
 13 18  1  0
 14 15  1  0
 15 16  2  0
 16 17  1  0
 17 18  2  0
 19 20  1  0
 19 21  1  0
 22 23  2  0
 22 24  1  0
 24 25  1  0
 25 26  1  0
 25 33  1  0
 26 27  1  0
 27 28  2  0
 27 32  1  0
 28 29  1  0
 29 30  2  0
 30 31  1  0
 31 32  2  0
 33 34  2  0
 33 35  1  0
 35 36  1  0
 36 37  2  0
 36 41  1  0
 37 38  1  0
 38 39  2  0
 39 40  1  0
 39 43  1  0
 40 41  2  0
 41 42  1  0
 43 44  2  0
 43 45  1  0
M  CHG  2  43   1  45  -1
M  END
>  <s_m_entry_id>  (299) 
638

>  <s_m_entry_name>  (299) 
3C-like_protease_GHDDI_ligprep.257

>  <s_m_Source_Path>  (299) 
/home/jgilaber/drug_learning/drug_learning/datasets/SAR1/GHDDI

>  <s_m_Source_File>  (299) 
3C-like_protease_GHDDI_ligprep.sdf

>  <i_m_Source_File_Index>  (299) 
257

>  <s_m_subgroup_title>  (299) 
3C-like_protease_GHDDI_ligprep

>  <s_m_subgroupid>  (299) 
3C-like_protease_GHDDI_ligprep

>  <b_m_subgroup_collapsed>  (299) 
0

$$$$
13777
     RDKit          2D

 38 41  0  0  1  0  0  0  0  0999 V2000
    8.0180    2.4619    0.0000 C   0  0  0  0  0  0  0  0  0  0  0  0
    6.7321    3.2342    0.0000 C   0  0  0  0  0  0  0  0  0  0  0  0
    6.7579    4.7340    0.0000 C   0  0  0  0  0  0  0  0  0  0  0  0
    5.4203    2.5067    0.0000 C   0  0  0  0  0  0  0  0  0  0  0  0
    5.3945    1.0069    0.0000 O   0  0  0  0  0  0  0  0  0  0  0  0
    4.1344    3.2790    0.0000 N   0  0  0  0  0  0  0  0  0  0  0  0
    2.8226    2.5514    0.0000 C   0  0  0  0  0  0  0  0  0  0  0  0
    2.7968    1.0517    0.0000 C   0  0  0  0  0  0  0  0  0  0  0  0
    1.4850    0.3242    0.0000 C   0  0  0  0  0  0  0  0  0  0  0  0
    0.1991    1.0964    0.0000 C   0  0  0  0  0  0  0  0  0  0  0  0
    0.2249    2.5962    0.0000 C   0  0  0  0  0  0  0  0  0  0  0  0
    1.5367    3.3237    0.0000 C   0  0  0  0  0  0  0  0  0  0  0  0
   -1.1127    0.3689    0.0000 N   0  0  0  0  0  0  0  0  0  0  0  0
   -2.3986    1.1412    0.0000 C   0  0  0  0  0  0  0  0  0  0  0  0
   -3.7104    0.4137    0.0000 C   0  0  0  0  0  0  0  0  0  0  0  0
   -3.7362   -1.0861    0.0000 O   0  0  0  0  0  0  0  0  0  0  0  0
   -4.9963    1.1860    0.0000 N   0  0  0  0  0  0  0  0  0  0  0  0
   -6.3081    0.4584    0.0000 C   0  0  0  0  0  0  0  0  0  0  0  0
   -7.0356    1.7702    0.0000 C   0  0  0  0  0  0  0  0  0  0  0  0
   -5.5805   -0.8533    0.0000 C   0  0  0  0  0  0  0  0  0  0  0  0
   -7.6198   -0.2691    0.0000 C   0  0  0  0  0  0  0  0  0  0  0  0
   -2.3728    2.6410    0.0000 C   0  0  0  0  0  0  0  0  0  0  0  0
   -3.5709    3.5434    0.0000 C   0  0  0  0  0  0  0  0  0  0  0  0
   -3.0829    4.9618    0.0000 C   0  0  0  0  0  0  0  0  0  0  0  0
   -1.5831    4.9360    0.0000 S   0  0  0  0  0  0  0  0  0  0  0  0
   -1.1442    3.5016    0.0000 C   0  0  0  0  0  0  0  0  0  0  0  0
   -1.1385   -1.1309    0.0000 C   0  0  0  0  0  0  0  0  0  0  0  0
   -2.4503   -1.8584    0.0000 O   0  0  0  0  0  0  0  0  0  0  0  0
    0.1474   -1.9031    0.0000 C   0  0  0  0  0  0  0  0  0  0  0  0
    0.1216   -3.4029    0.0000 N   0  0  0  0  0  0  0  0  0  0  0  0
   -1.1070   -4.2635    0.0000 N   0  0  0  0  0  0  0  0  0  0  0  0
   -0.6681   -5.6979    0.0000 N   0  0  0  0  0  0  0  0  0  0  0  0
    0.8317   -5.7237    0.0000 C   0  0  0  0  0  0  0  0  0  0  0  0
    1.8160   -6.8556    0.0000 C   0  0  0  0  0  0  0  0  0  0  0  0
    3.2884   -6.5690    0.0000 C   0  0  0  0  0  0  0  0  0  0  0  0
    3.7764   -5.1507    0.0000 C   0  0  0  0  0  0  0  0  0  0  0  0
    2.7921   -4.0188    0.0000 C   0  0  0  0  0  0  0  0  0  0  0  0
    1.3197   -4.3054    0.0000 C   0  0  0  0  0  0  0  0  0  0  0  0
  1  2  1  0
  2  3  1  0
  2  4  1  0
  4  5  2  0
  4  6  1  0
  6  7  1  0
  7  8  2  0
  7 12  1  0
  8  9  1  0
  9 10  2  0
 10 11  1  0
 10 13  1  0
 11 12  2  0
 13 14  1  0
 13 27  1  0
 14 15  1  0
 14 22  1  0
 15 16  2  0
 15 17  1  0
 17 18  1  0
 18 19  1  0
 18 20  1  0
 18 21  1  0
 22 23  1  0
 22 26  2  0
 23 24  2  0
 24 25  1  0
 25 26  1  0
 27 28  2  0
 27 29  1  0
 29 30  1  0
 30 31  1  0
 30 38  1  0
 31 32  2  0
 32 33  1  0
 33 34  1  0
 33 38  2  0
 34 35  2  0
 35 36  1  0
 36 37  2  0
 37 38  1  0
M  END
>  <s_m_entry_id>  (300) 
639

>  <s_m_entry_name>  (300) 
3C-like_protease_GHDDI_ligprep.258

>  <s_m_Source_Path>  (300) 
/home/jgilaber/drug_learning/drug_learning/datasets/SAR1/GHDDI

>  <s_m_Source_File>  (300) 
3C-like_protease_GHDDI_ligprep.sdf

>  <i_m_Source_File_Index>  (300) 
258

>  <s_m_subgroup_title>  (300) 
3C-like_protease_GHDDI_ligprep

>  <s_m_subgroupid>  (300) 
3C-like_protease_GHDDI_ligprep

>  <b_m_subgroup_collapsed>  (300) 
0

$$$$
13778
     RDKit          2D

 22 24  0  0  1  0  0  0  0  0999 V2000
   -5.8782   -2.0372    0.0000 C   0  0  0  0  0  0  0  0  0  0  0  0
   -4.8994   -0.9006    0.0000 C   0  0  0  0  0  0  0  0  0  0  0  0
   -5.3943    0.5154    0.0000 C   0  0  0  0  0  0  0  0  0  0  0  0
   -4.4155    1.6520    0.0000 C   0  0  0  0  0  0  0  0  0  0  0  0
   -4.9104    3.0680    0.0000 C   0  0  0  0  0  0  0  0  0  0  0  0
   -2.9417    1.3726    0.0000 C   0  0  0  0  0  0  0  0  0  0  0  0
   -2.4468   -0.0434    0.0000 N   0  0  0  0  0  0  0  0  0  0  0  0
   -3.4256   -1.1800    0.0000 C   0  0  0  0  0  0  0  0  0  0  0  0
   -0.9730   -0.3228    0.0000 S   0  0  0  0  0  0  0  0  0  0  0  0
   -0.6937    1.1510    0.0000 O   0  0  0  0  0  0  0  0  0  0  0  0
   -1.2524   -1.7965    0.0000 O   0  0  0  0  0  0  0  0  0  0  0  0
    0.5007   -0.6022    0.0000 C   0  0  0  0  0  0  0  0  0  0  0  0
    0.9956   -2.0182    0.0000 C   0  0  0  0  0  0  0  0  0  0  0  0
    2.4694   -2.2976    0.0000 C   0  0  0  0  0  0  0  0  0  0  0  0
    3.4482   -1.1610    0.0000 C   0  0  0  0  0  0  0  0  0  0  0  0
    4.9478   -1.1278    0.0000 N   0  0  0  0  0  0  0  0  0  0  0  0
    5.3797    0.3086    0.0000 C   0  0  0  0  0  0  0  0  0  0  0  0
    6.7958    0.8035    0.0000 O   0  0  0  0  0  0  0  0  0  0  0  0
    4.1471    1.1633    0.0000 C   0  0  0  0  0  0  0  0  0  0  0  0
    4.1139    2.6629    0.0000 O   0  0  0  0  0  0  0  0  0  0  0  0
    2.9533    0.2550    0.0000 C   0  0  0  0  0  0  0  0  0  0  0  0
    1.4795    0.5344    0.0000 C   0  0  0  0  0  0  0  0  0  0  0  0
  1  2  1  0
  2  3  1  0
  2  8  1  0
  3  4  1  0
  4  5  1  0
  4  6  1  0
  6  7  1  0
  7  8  1  0
  7  9  1  0
  9 10  2  0
  9 11  2  0
  9 12  1  0
 12 13  2  0
 12 22  1  0
 13 14  1  0
 14 15  2  0
 15 16  1  0
 15 21  1  0
 16 17  1  0
 17 18  2  0
 17 19  1  0
 19 20  2  0
 19 21  1  0
 21 22  2  0
M  END
>  <s_m_entry_id>  (301) 
642

>  <s_m_entry_name>  (301) 
3C-like_protease_GHDDI_ligprep.261

>  <s_m_Source_Path>  (301) 
/home/jgilaber/drug_learning/drug_learning/datasets/SAR1/GHDDI

>  <s_m_Source_File>  (301) 
3C-like_protease_GHDDI_ligprep.sdf

>  <i_m_Source_File_Index>  (301) 
261

>  <s_m_subgroup_title>  (301) 
3C-like_protease_GHDDI_ligprep

>  <s_m_subgroupid>  (301) 
3C-like_protease_GHDDI_ligprep

>  <b_m_subgroup_collapsed>  (301) 
0

$$$$
13779
     RDKit          2D

 31 34  0  0  1  0  0  0  0  0999 V2000
  -10.7045   -1.8138    0.0000 C   0  0  0  0  0  0  0  0  0  0  0  0
   -9.7728   -0.6382    0.0000 C   0  0  0  0  0  0  0  0  0  0  0  0
  -10.3251    0.7565    0.0000 C   0  0  0  0  0  0  0  0  0  0  0  0
   -9.3934    1.9320    0.0000 C   0  0  0  0  0  0  0  0  0  0  0  0
   -7.9095    1.7129    0.0000 C   0  0  0  0  0  0  0  0  0  0  0  0
   -7.3572    0.3183    0.0000 C   0  0  0  0  0  0  0  0  0  0  0  0
   -5.9513   -0.2045    0.0000 C   0  0  0  0  0  0  0  0  0  0  0  0
   -4.7019    0.6256    0.0000 C   0  0  0  0  0  0  0  0  0  0  0  0
   -3.3584   -0.0413    0.0000 C   0  0  0  0  0  0  0  0  0  0  0  0
   -2.1090    0.7888    0.0000 N   0  0  0  0  0  0  0  0  0  0  0  0
   -0.7654    0.1219    0.0000 C   0  0  0  0  0  0  0  0  0  0  0  0
    0.4840    0.9520    0.0000 C   0  0  0  0  0  0  0  0  0  0  0  0
    0.3897    2.4490    0.0000 O   0  0  0  0  0  0  0  0  0  0  0  0
    1.8275    0.2851    0.0000 C   0  0  0  0  0  0  0  0  0  0  0  0
    1.9218   -1.2120    0.0000 C   0  0  0  0  0  0  0  0  0  0  0  0
    3.2654   -1.8789    0.0000 C   0  0  0  0  0  0  0  0  0  0  0  0
    4.5147   -1.0488    0.0000 C   0  0  0  0  0  0  0  0  0  0  0  0
    4.4205    0.4483    0.0000 C   0  0  0  0  0  0  0  0  0  0  0  0
    5.6698    1.2784    0.0000 N   0  0  0  0  0  0  0  0  0  0  0  0
    7.0134    0.6115    0.0000 S   0  0  0  0  0  0  0  0  0  0  0  0
    6.3465   -0.7321    0.0000 O   0  0  0  0  0  0  0  0  0  0  0  0
    7.6803    1.9551    0.0000 O   0  0  0  0  0  0  0  0  0  0  0  0
    8.3570   -0.0554    0.0000 C   0  0  0  0  0  0  0  0  0  0  0  0
    9.6863    0.6395    0.0000 C   0  0  0  0  0  0  0  0  0  0  0  0
   10.7580   -0.4099    0.0000 C   0  0  0  0  0  0  0  0  0  0  0  0
   10.0911   -1.7535    0.0000 C   0  0  0  0  0  0  0  0  0  0  0  0
    8.6072   -1.5344    0.0000 S   0  0  0  0  0  0  0  0  0  0  0  0
    3.0769    1.1152    0.0000 C   0  0  0  0  0  0  0  0  0  0  0  0
   -6.0141   -1.7032    0.0000 C   0  0  0  0  0  0  0  0  0  0  0  0
   -7.4588   -2.1066    0.0000 N   0  0  0  0  0  0  0  0  0  0  0  0
   -8.2889   -0.8573    0.0000 C   0  0  0  0  0  0  0  0  0  0  0  0
  1  2  1  0
  2  3  2  0
  2 31  1  0
  3  4  1  0
  4  5  2  0
  5  6  1  0
  6  7  1  0
  6 31  2  0
  7  8  1  0
  7 29  2  0
  8  9  1  0
  9 10  1  0
 10 11  1  0
 11 12  1  0
 12 13  1  0
 12 14  1  0
 14 15  2  0
 14 28  1  0
 15 16  1  0
 16 17  2  0
 17 18  1  0
 18 19  1  0
 18 28  2  0
 19 20  1  0
 20 21  2  0
 20 22  2  0
 20 23  1  0
 23 24  2  0
 23 27  1  0
 24 25  1  0
 25 26  2  0
 26 27  1  0
 29 30  1  0
 30 31  1  0
M  CHG  1  10   1
M  END
>  <s_m_entry_id>  (302) 
645

>  <s_m_entry_name>  (302) 
3C-like_protease_GHDDI_ligprep.264

>  <s_m_Source_Path>  (302) 
/home/jgilaber/drug_learning/drug_learning/datasets/SAR1/GHDDI

>  <s_m_Source_File>  (302) 
3C-like_protease_GHDDI_ligprep.sdf

>  <i_m_Source_File_Index>  (302) 
264

>  <s_m_subgroup_title>  (302) 
3C-like_protease_GHDDI_ligprep

>  <s_m_subgroupid>  (302) 
3C-like_protease_GHDDI_ligprep

>  <b_m_subgroup_collapsed>  (302) 
0

$$$$
13780
     RDKit          2D

 21 23  0  0  1  0  0  0  0  0999 V2000
    5.3017   -0.2864    0.0000 C   0  0  0  0  0  0  0  0  0  0  0  0
    3.8784   -0.7598    0.0000 C   0  0  0  0  0  0  0  0  0  0  0  0
    3.5767   -2.2292    0.0000 C   0  0  0  0  0  0  0  0  0  0  0  0
    2.1534   -2.7026    0.0000 C   0  0  0  0  0  0  0  0  0  0  0  0
    1.0317   -1.7067    0.0000 C   0  0  0  0  0  0  0  0  0  0  0  0
   -0.4589   -1.8738    0.0000 N   0  0  0  0  0  0  0  0  0  0  0  0
   -1.0785   -0.5077    0.0000 C   0  0  0  0  0  0  0  0  0  0  0  0
    0.0292    0.5037    0.0000 S   0  0  0  0  0  0  0  0  0  0  0  0
    1.3334   -0.2373    0.0000 C   0  0  0  0  0  0  0  0  0  0  0  0
    2.7567    0.2361    0.0000 C   0  0  0  0  0  0  0  0  0  0  0  0
    3.0584    1.7055    0.0000 S   0  0  0  0  0  0  0  0  0  0  0  0
    4.5278    1.4038    0.0000 O   0  0  0  0  0  0  0  0  0  0  0  0
    1.5891    2.0071    0.0000 O   0  0  0  0  0  0  0  0  0  0  0  0
    3.3601    3.1748    0.0000 O   0  0  0  0  0  0  0  0  0  0  0  0
   -2.5479   -0.2061    0.0000 C   0  0  0  0  0  0  0  0  0  0  0  0
   -3.0213    1.2173    0.0000 C   0  0  0  0  0  0  0  0  0  0  0  0
   -4.4906    1.5189    0.0000 C   0  0  0  0  0  0  0  0  0  0  0  0
   -5.4866    0.3973    0.0000 C   0  0  0  0  0  0  0  0  0  0  0  0
   -6.9559    0.6990    0.0000 N   0  0  0  0  0  0  0  0  0  0  0  0
   -5.0132   -1.0260    0.0000 C   0  0  0  0  0  0  0  0  0  0  0  0
   -3.5438   -1.3277    0.0000 C   0  0  0  0  0  0  0  0  0  0  0  0
  1  2  1  0
  2  3  2  0
  2 10  1  0
  3  4  1  0
  4  5  2  0
  5  6  1  0
  5  9  1  0
  6  7  2  0
  7  8  1  0
  7 15  1  0
  8  9  1  0
  9 10  2  0
 10 11  1  0
 11 12  2  0
 11 13  2  0
 11 14  1  0
 15 16  2  0
 15 21  1  0
 16 17  1  0
 17 18  2  0
 18 19  1  0
 18 20  1  0
 20 21  2  0
M  CHG  1  14  -1
M  END
>  <s_m_entry_id>  (303) 
647

>  <s_m_entry_name>  (303) 
3C-like_protease_GHDDI_ligprep.266

>  <s_m_Source_Path>  (303) 
/home/jgilaber/drug_learning/drug_learning/datasets/SAR1/GHDDI

>  <s_m_Source_File>  (303) 
3C-like_protease_GHDDI_ligprep.sdf

>  <i_m_Source_File_Index>  (303) 
266

>  <s_m_subgroup_title>  (303) 
3C-like_protease_GHDDI_ligprep

>  <s_m_subgroupid>  (303) 
3C-like_protease_GHDDI_ligprep

>  <b_m_subgroup_collapsed>  (303) 
0

$$$$
13781
     RDKit          2D

 47 50  0  0  1  0  0  0  0  0999 V2000
    4.8244    3.9002    0.0000 C   0  0  0  0  0  0  0  0  0  0  0  0
    3.5927    3.0441    0.0000 C   0  0  0  0  0  0  0  0  0  0  0  0
    2.2354    3.6828    0.0000 C   0  0  0  0  0  0  0  0  0  0  0  0
    3.7182    1.5494    0.0000 C   0  0  0  0  0  0  0  0  0  0  0  0
    5.0755    0.9108    0.0000 N   0  0  0  0  0  0  0  0  0  0  0  0
    6.3072    1.7669    0.0000 C   0  0  0  0  0  0  0  0  0  0  0  0
    6.1816    3.2616    0.0000 O   0  0  0  0  0  0  0  0  0  0  0  0
    7.6644    1.1282    0.0000 C   0  0  0  0  0  0  0  0  0  0  0  0
    8.9789    1.8509    0.0000 C   0  0  0  0  0  0  0  0  0  0  0  0
   10.0723    0.8241    0.0000 C   0  0  0  0  0  0  0  0  0  0  0  0
    9.4337   -0.5332    0.0000 C   0  0  0  0  0  0  0  0  0  0  0  0
    7.9455   -0.3452    0.0000 S   0  0  0  0  0  0  0  0  0  0  0  0
    2.4865    0.6933    0.0000 C   0  0  0  0  0  0  0  0  0  0  0  0
    1.1292    1.3320    0.0000 O   0  0  0  0  0  0  0  0  0  0  0  0
    2.6120   -0.8014    0.0000 N   0  0  0  0  0  0  0  0  0  0  0  0
    1.3803   -1.6575    0.0000 C   0  0  0  0  0  0  0  0  0  0  0  0
    1.5059   -3.1523    0.0000 C   0  0  0  0  0  0  0  0  0  0  0  0
    2.8631   -3.7909    0.0000 C   0  0  0  0  0  0  0  0  0  0  0  0
    2.9887   -5.2856    0.0000 C   0  0  0  0  0  0  0  0  0  0  0  0
    4.3459   -5.9243    0.0000 C   0  0  0  0  0  0  0  0  0  0  0  0
    5.5776   -5.0682    0.0000 C   0  0  0  0  0  0  0  0  0  0  0  0
    5.4521   -3.5735    0.0000 C   0  0  0  0  0  0  0  0  0  0  0  0
    4.0948   -2.9348    0.0000 C   0  0  0  0  0  0  0  0  0  0  0  0
    0.0231   -1.0189    0.0000 C   0  0  0  0  0  0  0  0  0  0  0  0
   -1.2086   -1.8750    0.0000 O   0  0  0  0  0  0  0  0  0  0  0  0
   -0.1025    0.4759    0.0000 N   0  0  0  0  0  0  0  0  0  0  0  0
   -1.4597    1.1145    0.0000 C   0  0  0  0  0  0  0  0  0  0  0  0
   -1.5853    2.6092    0.0000 C   0  0  0  0  0  0  0  0  0  0  0  0
   -2.9425    3.2479    0.0000 C   0  0  0  0  0  0  0  0  0  0  0  0
   -3.0681    4.7426    0.0000 C   0  0  0  0  0  0  0  0  0  0  0  0
   -4.4253    5.3813    0.0000 C   0  0  0  0  0  0  0  0  0  0  0  0
   -5.6570    4.5252    0.0000 C   0  0  0  0  0  0  0  0  0  0  0  0
   -5.5315    3.0304    0.0000 C   0  0  0  0  0  0  0  0  0  0  0  0
   -4.1742    2.3918    0.0000 C   0  0  0  0  0  0  0  0  0  0  0  0
   -2.6914    0.2584    0.0000 C   0  0  0  0  0  0  0  0  0  0  0  0
   -2.5659   -1.2363    0.0000 O   0  0  0  0  0  0  0  0  0  0  0  0
   -4.0487    0.8971    0.0000 N   0  0  0  0  0  0  0  0  0  0  0  0
   -5.2804    0.0410    0.0000 C   0  0  0  0  0  0  0  0  0  0  0  0
   -6.6376    0.6796    0.0000 C   0  0  0  0  0  0  0  0  0  0  0  0
   -7.8693   -0.1765    0.0000 C   0  0  0  0  0  0  0  0  0  0  0  0
   -7.7438   -1.6712    0.0000 C   0  0  0  0  0  0  0  0  0  0  0  0
   -6.3865   -2.3099    0.0000 C   0  0  0  0  0  0  0  0  0  0  0  0
   -5.1548   -1.4538    0.0000 C   0  0  0  0  0  0  0  0  0  0  0  0
   -3.7976   -2.0924    0.0000 Cl  0  0  0  0  0  0  0  0  0  0  0  0
   -8.9755   -2.5273    0.0000 N   0  0  0  0  0  0  0  0  0  0  0  0
   -8.8500   -4.0221    0.0000 O   0  0  0  0  0  0  0  0  0  0  0  0
  -10.3328   -1.8887    0.0000 O   0  0  0  0  0  0  0  0  0  0  0  0
  1  2  1  0
  2  3  1  0
  2  4  1  0
  4  5  1  0
  4 13  1  0
  5  6  1  0
  6  7  2  0
  6  8  1  0
  8  9  2  0
  8 12  1  0
  9 10  1  0
 10 11  2  0
 11 12  1  0
 13 14  2  0
 13 15  1  0
 15 16  1  0
 16 17  1  0
 16 24  1  0
 17 18  1  0
 18 19  2  0
 18 23  1  0
 19 20  1  0
 20 21  2  0
 21 22  1  0
 22 23  2  0
 24 25  2  0
 24 26  1  0
 26 27  1  0
 27 28  1  0
 27 35  1  0
 28 29  1  0
 29 30  2  0
 29 34  1  0
 30 31  1  0
 31 32  2  0
 32 33  1  0
 33 34  2  0
 35 36  2  0
 35 37  1  0
 37 38  1  0
 38 39  2  0
 38 43  1  0
 39 40  1  0
 40 41  2  0
 41 42  1  0
 41 45  1  0
 42 43  2  0
 43 44  1  0
 45 46  2  0
 45 47  1  0
M  CHG  2  45   1  47  -1
M  END
>  <s_m_entry_id>  (304) 
648

>  <s_m_entry_name>  (304) 
3C-like_protease_GHDDI_ligprep.267

>  <s_m_Source_Path>  (304) 
/home/jgilaber/drug_learning/drug_learning/datasets/SAR1/GHDDI

>  <s_m_Source_File>  (304) 
3C-like_protease_GHDDI_ligprep.sdf

>  <i_m_Source_File_Index>  (304) 
267

>  <s_m_subgroup_title>  (304) 
3C-like_protease_GHDDI_ligprep

>  <s_m_subgroupid>  (304) 
3C-like_protease_GHDDI_ligprep

>  <b_m_subgroup_collapsed>  (304) 
0

$$$$
13782
     RDKit          2D

 34 37  0  0  1  0  0  0  0  0999 V2000
   -6.3387    2.1304    0.0000 C   0  0  0  0  0  0  0  0  0  0  0  0
   -5.9830    0.6732    0.0000 C   0  0  0  0  0  0  0  0  0  0  0  0
   -5.6272   -0.7841    0.0000 C   0  0  0  0  0  0  0  0  0  0  0  0
   -7.4402    0.3174    0.0000 C   0  0  0  0  0  0  0  0  0  0  0  0
   -4.5258    1.0289    0.0000 N   0  0  0  0  0  0  0  0  0  0  0  0
   -3.4891   -0.0552    0.0000 C   0  0  0  0  0  0  0  0  0  0  0  0
   -3.9096   -1.4951    0.0000 O   0  0  0  0  0  0  0  0  0  0  0  0
   -2.0319    0.3005    0.0000 C   0  0  0  0  0  0  0  0  0  0  0  0
   -0.9952   -0.7836    0.0000 N   0  0  0  0  0  0  0  0  0  0  0  0
   -1.4157   -2.2234    0.0000 C   0  0  0  0  0  0  0  0  0  0  0  0
   -2.8729   -2.5792    0.0000 O   0  0  0  0  0  0  0  0  0  0  0  0
   -0.3791   -3.3076    0.0000 C   0  0  0  0  0  0  0  0  0  0  0  0
    1.1074   -3.1061    0.0000 C   0  0  0  0  0  0  0  0  0  0  0  0
    1.7583   -4.4575    0.0000 N   0  0  0  0  0  0  0  0  0  0  0  0
    0.6742   -5.4942    0.0000 C   0  0  0  0  0  0  0  0  0  0  0  0
   -0.6468   -4.7835    0.0000 N   0  0  0  0  0  0  0  0  0  0  0  0
    0.4620   -0.4279    0.0000 C   0  0  0  0  0  0  0  0  0  0  0  0
    1.4987   -1.5120    0.0000 C   0  0  0  0  0  0  0  0  0  0  0  0
    2.9559   -1.1562    0.0000 C   0  0  0  0  0  0  0  0  0  0  0  0
    3.3764    0.2836    0.0000 C   0  0  0  0  0  0  0  0  0  0  0  0
    2.3397    1.3677    0.0000 C   0  0  0  0  0  0  0  0  0  0  0  0
    0.8825    1.0120    0.0000 C   0  0  0  0  0  0  0  0  0  0  0  0
    4.8336    0.6393    0.0000 C   0  0  0  0  0  0  0  0  0  0  0  0
    5.8703   -0.4448    0.0000 C   0  0  0  0  0  0  0  0  0  0  0  0
    7.3275   -0.0890    0.0000 C   0  0  0  0  0  0  0  0  0  0  0  0
    7.7480    1.3508    0.0000 C   0  0  0  0  0  0  0  0  0  0  0  0
    6.7114    2.4349    0.0000 C   0  0  0  0  0  0  0  0  0  0  0  0
    5.2542    2.0792    0.0000 C   0  0  0  0  0  0  0  0  0  0  0  0
   -1.6114    1.7404    0.0000 C   0  0  0  0  0  0  0  0  0  0  0  0
   -2.6480    2.8245    0.0000 C   0  0  0  0  0  0  0  0  0  0  0  0
   -2.2275    4.2643    0.0000 C   0  0  0  0  0  0  0  0  0  0  0  0
   -0.7703    4.6201    0.0000 C   0  0  0  0  0  0  0  0  0  0  0  0
    0.2664    3.5359    0.0000 N   0  0  0  0  0  0  0  0  0  0  0  0
   -0.1541    2.0961    0.0000 C   0  0  0  0  0  0  0  0  0  0  0  0
  1  2  1  0
  2  3  1  0
  2  4  1  0
  2  5  1  0
  5  6  1  0
  6  7  2  0
  6  8  1  0
  8  9  1  0
  8 29  1  0
  9 10  1  0
  9 17  1  0
 10 11  2  0
 10 12  1  0
 12 13  2  0
 12 16  1  0
 13 14  1  0
 14 15  2  0
 15 16  1  0
 17 18  2  0
 17 22  1  0
 18 19  1  0
 19 20  2  0
 20 21  1  0
 20 23  1  0
 21 22  2  0
 23 24  1  0
 23 28  1  0
 24 25  1  0
 25 26  1  0
 26 27  1  0
 27 28  1  0
 29 30  2  0
 29 34  1  0
 30 31  1  0
 31 32  2  0
 32 33  1  0
 33 34  2  0
M  END
>  <s_m_entry_id>  (305) 
649

>  <s_m_entry_name>  (305) 
3C-like_protease_GHDDI_ligprep.268

>  <s_m_Source_Path>  (305) 
/home/jgilaber/drug_learning/drug_learning/datasets/SAR1/GHDDI

>  <s_m_Source_File>  (305) 
3C-like_protease_GHDDI_ligprep.sdf

>  <i_m_Source_File_Index>  (305) 
268

>  <s_m_subgroup_title>  (305) 
3C-like_protease_GHDDI_ligprep

>  <s_m_subgroupid>  (305) 
3C-like_protease_GHDDI_ligprep

>  <b_m_subgroup_collapsed>  (305) 
0

$$$$
13784
     RDKit          2D

 20 22  0  0  1  0  0  0  0  0999 V2000
   -6.2693    0.7543    0.0000 O   0  0  0  0  0  0  0  0  0  0  0  0
   -4.8455    0.2822    0.0000 C   0  0  0  0  0  0  0  0  0  0  0  0
   -4.3905   -1.1471    0.0000 N   0  0  0  0  0  0  0  0  0  0  0  0
   -2.8905   -1.1561    0.0000 C   0  0  0  0  0  0  0  0  0  0  0  0
   -1.8935   -2.2768    0.0000 C   0  0  0  0  0  0  0  0  0  0  0  0
   -0.4245   -1.9737    0.0000 C   0  0  0  0  0  0  0  0  0  0  0  0
    0.0476   -0.5499    0.0000 C   0  0  0  0  0  0  0  0  0  0  0  0
   -0.9494    0.5708    0.0000 C   0  0  0  0  0  0  0  0  0  0  0  0
   -2.4185    0.2677    0.0000 C   0  0  0  0  0  0  0  0  0  0  0  0
   -3.6267    1.1566    0.0000 C   0  0  0  0  0  0  0  0  0  0  0  0
   -3.6177    2.6566    0.0000 O   0  0  0  0  0  0  0  0  0  0  0  0
    1.5166   -0.2468    0.0000 S   0  0  0  0  0  0  0  0  0  0  0  0
    1.8197   -1.7159    0.0000 O   0  0  0  0  0  0  0  0  0  0  0  0
    1.2136    1.2222    0.0000 O   0  0  0  0  0  0  0  0  0  0  0  0
    2.9857    0.0562    0.0000 N   0  0  0  0  0  0  0  0  0  0  0  0
    3.9827   -1.0645    0.0000 C   0  0  0  0  0  0  0  0  0  0  0  0
    5.4518   -0.7614    0.0000 C   0  0  0  0  0  0  0  0  0  0  0  0
    5.9238    0.6624    0.0000 C   0  0  0  0  0  0  0  0  0  0  0  0
    4.9268    1.7831    0.0000 C   0  0  0  0  0  0  0  0  0  0  0  0
    3.4578    1.4800    0.0000 C   0  0  0  0  0  0  0  0  0  0  0  0
  1  2  2  0
  2  3  1  0
  2 10  1  0
  3  4  1  0
  4  5  2  0
  4  9  1  0
  5  6  1  0
  6  7  2  0
  7  8  1  0
  7 12  1  0
  8  9  2  0
  9 10  1  0
 10 11  2  0
 12 13  2  0
 12 14  2  0
 12 15  1  0
 15 16  1  0
 15 20  1  0
 16 17  1  0
 17 18  1  0
 18 19  1  0
 19 20  1  0
M  END
>  <s_m_entry_id>  (306) 
654

>  <s_m_entry_name>  (306) 
3C-like_protease_GHDDI_ligprep.273

>  <s_m_Source_Path>  (306) 
/home/jgilaber/drug_learning/drug_learning/datasets/SAR1/GHDDI

>  <s_m_Source_File>  (306) 
3C-like_protease_GHDDI_ligprep.sdf

>  <i_m_Source_File_Index>  (306) 
273

>  <s_m_subgroup_title>  (306) 
3C-like_protease_GHDDI_ligprep

>  <s_m_subgroupid>  (306) 
3C-like_protease_GHDDI_ligprep

>  <b_m_subgroup_collapsed>  (306) 
0

$$$$
13785
     RDKit          2D

 39 39  0  0  1  0  0  0  0  0999 V2000
    4.3390    5.5705    0.0000 C   0  0  0  0  0  0  0  0  0  0  0  0
    3.5510    4.2941    0.0000 C   0  0  0  0  0  0  0  0  0  0  0  0
    2.0517    4.3382    0.0000 C   0  0  0  0  0  0  0  0  0  0  0  0
    4.2625    2.9735    0.0000 C   0  0  0  0  0  0  0  0  0  0  0  0
    3.4745    1.6971    0.0000 C   0  0  0  0  0  0  0  0  0  0  0  0
    4.1860    0.3766    0.0000 N   0  0  0  0  0  0  0  0  0  0  0  0
    3.3981   -0.8998    0.0000 C   0  0  0  0  0  0  0  0  0  0  0  0
    1.8987   -0.8557    0.0000 O   0  0  0  0  0  0  0  0  0  0  0  0
    4.1095   -2.2204    0.0000 C   0  0  0  0  0  0  0  0  0  0  0  0
    3.3216   -3.4968    0.0000 N   0  0  0  0  0  0  0  0  0  0  0  0
    1.8222   -3.4526    0.0000 C   0  0  0  0  0  0  0  0  0  0  0  0
    1.1108   -2.1321    0.0000 O   0  0  0  0  0  0  0  0  0  0  0  0
    1.0343   -4.7290    0.0000 C   0  0  0  0  0  0  0  0  0  0  0  0
    1.7457   -6.0496    0.0000 C   0  0  0  0  0  0  0  0  0  0  0  0
   -0.4651   -4.6849    0.0000 N   0  0  0  0  0  0  0  0  0  0  0  0
   -1.1765   -3.3643    0.0000 C   0  0  0  0  0  0  0  0  0  0  0  0
   -0.3886   -2.0879    0.0000 O   0  0  0  0  0  0  0  0  0  0  0  0
   -2.6758   -3.3201    0.0000 O   0  0  0  0  0  0  0  0  0  0  0  0
   -3.3873   -1.9996    0.0000 C   0  0  0  0  0  0  0  0  0  0  0  0
   -4.8866   -1.9554    0.0000 C   0  0  0  0  0  0  0  0  0  0  0  0
   -5.6745   -3.2318    0.0000 C   0  0  0  0  0  0  0  0  0  0  0  0
   -7.1739   -3.1877    0.0000 C   0  0  0  0  0  0  0  0  0  0  0  0
   -7.8853   -1.8671    0.0000 C   0  0  0  0  0  0  0  0  0  0  0  0
   -7.0974   -0.5907    0.0000 C   0  0  0  0  0  0  0  0  0  0  0  0
   -5.5980   -0.6349    0.0000 C   0  0  0  0  0  0  0  0  0  0  0  0
    5.6088   -2.2646    0.0000 C   0  0  0  0  0  0  0  0  0  0  0  0
    6.3968   -0.9882    0.0000 C   0  0  0  0  0  0  0  0  0  0  0  0
    6.3203   -3.5851    0.0000 C   0  0  0  0  0  0  0  0  0  0  0  0
    1.9752    1.7413    0.0000 C   0  0  0  0  0  0  0  0  0  0  0  0
    1.1873    0.4649    0.0000 O   0  0  0  0  0  0  0  0  0  0  0  0
    1.2638    3.0618    0.0000 N   0  0  0  0  0  0  0  0  0  0  0  0
   -0.2356    3.1060    0.0000 C   0  0  0  0  0  0  0  0  0  0  0  0
   -0.9470    4.4265    0.0000 C   0  0  0  0  0  0  0  0  0  0  0  0
   -2.4464    4.4707    0.0000 C   0  0  0  0  0  0  0  0  0  0  0  0
   -3.1578    5.7913    0.0000 C   0  0  0  0  0  0  0  0  0  0  0  0
   -2.3699    7.0677    0.0000 O   0  0  0  0  0  0  0  0  0  0  0  0
   -4.6571    5.8354    0.0000 N   0  0  0  0  0  0  0  0  0  0  0  0
   -1.0235    1.8296    0.0000 C   0  0  0  0  0  0  0  0  0  0  0  0
   -1.8114    0.5532    0.0000 N   0  0  0  0  0  0  0  0  0  0  0  0
  1  2  1  0
  2  3  1  0
  2  4  1  0
  4  5  1  0
  5  6  1  0
  5 29  1  0
  6  7  1  0
  7  8  2  0
  7  9  1  0
  9 10  1  0
  9 26  1  0
 10 11  1  0
 11 12  2  0
 11 13  1  0
 13 14  1  0
 13 15  1  0
 15 16  1  0
 16 17  2  0
 16 18  1  0
 18 19  1  0
 19 20  1  0
 20 21  2  0
 20 25  1  0
 21 22  1  0
 22 23  2  0
 23 24  1  0
 24 25  2  0
 26 27  1  0
 26 28  1  0
 29 30  2  0
 29 31  1  0
 31 32  1  0
 32 33  1  0
 32 38  1  0
 33 34  1  0
 34 35  1  0
 35 36  2  0
 35 37  1  0
 38 39  3  0
M  END
>  <s_m_entry_id>  (307) 
659

>  <s_m_entry_name>  (307) 
3C-like_protease_GHDDI_ligprep.278

>  <s_m_Source_Path>  (307) 
/home/jgilaber/drug_learning/drug_learning/datasets/SAR1/GHDDI

>  <s_m_Source_File>  (307) 
3C-like_protease_GHDDI_ligprep.sdf

>  <i_m_Source_File_Index>  (307) 
278

>  <s_m_subgroup_title>  (307) 
3C-like_protease_GHDDI_ligprep

>  <s_m_subgroupid>  (307) 
3C-like_protease_GHDDI_ligprep

>  <b_m_subgroup_collapsed>  (307) 
0

$$$$
13786
     RDKit          2D

 29 32  0  0  1  0  0  0  0  0999 V2000
   -6.3122   -3.2715    0.0000 C   0  0  0  0  0  0  0  0  0  0  0  0
   -5.7833   -1.8679    0.0000 C   0  0  0  0  0  0  0  0  0  0  0  0
   -6.7345   -0.7080    0.0000 C   0  0  0  0  0  0  0  0  0  0  0  0
   -6.2056    0.6957    0.0000 C   0  0  0  0  0  0  0  0  0  0  0  0
   -7.1568    1.8555    0.0000 C   0  0  0  0  0  0  0  0  0  0  0  0
   -4.7256    0.9395    0.0000 C   0  0  0  0  0  0  0  0  0  0  0  0
   -3.7744   -0.2204    0.0000 N   0  0  0  0  0  0  0  0  0  0  0  0
   -4.3033   -1.6241    0.0000 C   0  0  0  0  0  0  0  0  0  0  0  0
   -2.2944    0.0234    0.0000 S   0  0  0  0  0  0  0  0  0  0  0  0
   -2.5382    1.5035    0.0000 O   0  0  0  0  0  0  0  0  0  0  0  0
   -2.0505   -1.4566    0.0000 O   0  0  0  0  0  0  0  0  0  0  0  0
   -0.8143    0.2672    0.0000 C   0  0  0  0  0  0  0  0  0  0  0  0
    0.1369   -0.8926    0.0000 C   0  0  0  0  0  0  0  0  0  0  0  0
    1.6169   -0.6488    0.0000 C   0  0  0  0  0  0  0  0  0  0  0  0
    2.1458    0.7549    0.0000 C   0  0  0  0  0  0  0  0  0  0  0  0
    3.5428    1.3011    0.0000 N   0  0  0  0  0  0  0  0  0  0  0  0
    4.8059    0.4919    0.0000 C   0  0  0  0  0  0  0  0  0  0  0  0
    4.7366   -1.0065    0.0000 C   0  0  0  0  0  0  0  0  0  0  0  0
    3.4044   -1.6957    0.0000 C   0  0  0  0  0  0  0  0  0  0  0  0
    3.3351   -3.1941    0.0000 C   0  0  0  0  0  0  0  0  0  0  0  0
    4.5982   -4.0033    0.0000 C   0  0  0  0  0  0  0  0  0  0  0  0
    5.9304   -3.3140    0.0000 C   0  0  0  0  0  0  0  0  0  0  0  0
    5.9997   -1.8156    0.0000 C   0  0  0  0  0  0  0  0  0  0  0  0
    3.4550    2.7985    0.0000 C   0  0  0  0  0  0  0  0  0  0  0  0
    4.6149    3.7497    0.0000 O   0  0  0  0  0  0  0  0  0  0  0  0
    2.0038    3.1778    0.0000 C   0  0  0  0  0  0  0  0  0  0  0  0
    1.4576    4.5748    0.0000 O   0  0  0  0  0  0  0  0  0  0  0  0
    1.1946    1.9147    0.0000 C   0  0  0  0  0  0  0  0  0  0  0  0
   -0.2854    1.6709    0.0000 C   0  0  0  0  0  0  0  0  0  0  0  0
  1  2  1  0
  2  3  1  0
  2  8  1  0
  3  4  1  0
  4  5  1  0
  4  6  1  0
  6  7  1  0
  7  8  1  0
  7  9  1  0
  9 10  2  0
  9 11  2  0
  9 12  1  0
 12 13  2  0
 12 29  1  0
 13 14  1  0
 14 15  2  0
 15 16  1  0
 15 28  1  0
 16 17  1  0
 16 24  1  0
 17 18  1  0
 18 19  2  0
 18 23  1  0
 19 20  1  0
 20 21  2  0
 21 22  1  0
 22 23  2  0
 24 25  2  0
 24 26  1  0
 26 27  2  0
 26 28  1  0
 28 29  2  0
M  END
>  <s_m_entry_id>  (308) 
663

>  <s_m_entry_name>  (308) 
3C-like_protease_GHDDI_ligprep.282

>  <s_m_Source_Path>  (308) 
/home/jgilaber/drug_learning/drug_learning/datasets/SAR1/GHDDI

>  <s_m_Source_File>  (308) 
3C-like_protease_GHDDI_ligprep.sdf

>  <i_m_Source_File_Index>  (308) 
282

>  <s_m_subgroup_title>  (308) 
3C-like_protease_GHDDI_ligprep

>  <s_m_subgroupid>  (308) 
3C-like_protease_GHDDI_ligprep

>  <b_m_subgroup_collapsed>  (308) 
0

$$$$
13787
     RDKit          2D

 52 54  0  0  1  0  0  0  0  0999 V2000
   10.7627    0.4983    0.0000 C   0  0  0  0  0  0  0  0  0  0  0  0
    9.3393    0.0250    0.0000 C   0  0  0  0  0  0  0  0  0  0  0  0
    8.2178    1.0211    0.0000 C   0  0  0  0  0  0  0  0  0  0  0  0
    8.5196    2.4904    0.0000 O   0  0  0  0  0  0  0  0  0  0  0  0
    6.7944    0.5478    0.0000 N   0  0  0  0  0  0  0  0  0  0  0  0
    5.6728    1.5439    0.0000 C   0  0  0  0  0  0  0  0  0  0  0  0
    5.9747    3.0132    0.0000 C   0  0  0  0  0  0  0  0  0  0  0  0
    7.3981    3.4865    0.0000 C   0  0  0  0  0  0  0  0  0  0  0  0
    4.8531    4.0093    0.0000 C   0  0  0  0  0  0  0  0  0  0  0  0
    4.2494    1.0706    0.0000 C   0  0  0  0  0  0  0  0  0  0  0  0
    3.1279    2.0667    0.0000 O   0  0  0  0  0  0  0  0  0  0  0  0
    3.9476   -0.3987    0.0000 N   0  0  0  0  0  0  0  0  0  0  0  0
    2.5242   -0.8719    0.0000 C   0  0  0  0  0  0  0  0  0  0  0  0
    2.2224   -2.3413    0.0000 C   0  0  0  0  0  0  0  0  0  0  0  0
    3.3439   -3.3373    0.0000 C   0  0  0  0  0  0  0  0  0  0  0  0
    3.0421   -4.8066    0.0000 C   0  0  0  0  0  0  0  0  0  0  0  0
    4.1636   -5.8027    0.0000 C   0  0  0  0  0  0  0  0  0  0  0  0
    5.5870   -5.3294    0.0000 C   0  0  0  0  0  0  0  0  0  0  0  0
    6.7085   -6.3255    0.0000 F   0  0  0  0  0  0  0  0  0  0  0  0
    5.8888   -3.8601    0.0000 C   0  0  0  0  0  0  0  0  0  0  0  0
    4.7673   -2.8641    0.0000 C   0  0  0  0  0  0  0  0  0  0  0  0
    1.4027    0.1241    0.0000 C   0  0  0  0  0  0  0  0  0  0  0  0
   -0.0207   -0.3491    0.0000 O   0  0  0  0  0  0  0  0  0  0  0  0
    1.7045    1.5934    0.0000 N   0  0  0  0  0  0  0  0  0  0  0  0
    0.5830    2.5895    0.0000 C   0  0  0  0  0  0  0  0  0  0  0  0
    0.8848    4.0588    0.0000 C   0  0  0  0  0  0  0  0  0  0  0  0
   -0.2367    5.0549    0.0000 C   0  0  0  0  0  0  0  0  0  0  0  0
    2.3082    4.5321    0.0000 O   0  0  0  0  0  0  0  0  0  0  0  0
   -0.8404    2.1163    0.0000 C   0  0  0  0  0  0  0  0  0  0  0  0
   -1.1423    0.6469    0.0000 O   0  0  0  0  0  0  0  0  0  0  0  0
   -1.9620    3.1123    0.0000 N   0  0  0  0  0  0  0  0  0  0  0  0
   -3.3853    2.6391    0.0000 C   0  0  0  0  0  0  0  0  0  0  0  0
   -4.5069    3.6351    0.0000 C   0  0  0  0  0  0  0  0  0  0  0  0
   -5.9303    3.1619    0.0000 C   0  0  0  0  0  0  0  0  0  0  0  0
   -7.0518    4.1579    0.0000 C   0  0  0  0  0  0  0  0  0  0  0  0
   -8.4752    3.6847    0.0000 C   0  0  0  0  0  0  0  0  0  0  0  0
   -8.7770    2.2154    0.0000 C   0  0  0  0  0  0  0  0  0  0  0  0
   -7.6555    1.2193    0.0000 C   0  0  0  0  0  0  0  0  0  0  0  0
   -6.2321    1.6926    0.0000 C   0  0  0  0  0  0  0  0  0  0  0  0
   -3.6872    1.1697    0.0000 C   0  0  0  0  0  0  0  0  0  0  0  0
   -2.5656    0.1737    0.0000 O   0  0  0  0  0  0  0  0  0  0  0  0
   -5.1106    0.6965    0.0000 N   0  0  0  0  0  0  0  0  0  0  0  0
   -5.4124   -0.7728    0.0000 C   0  0  0  0  0  0  0  0  0  0  0  0
   -6.8358   -1.2461    0.0000 C   0  0  0  0  0  0  0  0  0  0  0  0
   -7.1377   -2.7154    0.0000 C   0  0  0  0  0  0  0  0  0  0  0  0
   -6.0161   -3.7115    0.0000 C   0  0  0  0  0  0  0  0  0  0  0  0
   -4.5927   -3.2382    0.0000 C   0  0  0  0  0  0  0  0  0  0  0  0
   -4.2909   -1.7689    0.0000 C   0  0  0  0  0  0  0  0  0  0  0  0
   -2.8675   -1.2956    0.0000 Cl  0  0  0  0  0  0  0  0  0  0  0  0
   -6.3180   -5.1808    0.0000 N   0  0  0  0  0  0  0  0  0  0  0  0
   -5.1964   -6.1768    0.0000 O   0  0  0  0  0  0  0  0  0  0  0  0
   -7.7413   -5.6540    0.0000 O   0  0  0  0  0  0  0  0  0  0  0  0
  1  2  1  0
  2  3  1  0
  3  4  2  0
  3  5  1  0
  5  6  1  0
  6  7  1  0
  6 10  1  0
  7  8  1  0
  7  9  1  0
 10 11  2  0
 10 12  1  0
 12 13  1  0
 13 14  1  0
 13 22  1  0
 14 15  1  0
 15 16  2  0
 15 21  1  0
 16 17  1  0
 17 18  2  0
 18 19  1  0
 18 20  1  0
 20 21  2  0
 22 23  2  0
 22 24  1  0
 24 25  1  0
 25 26  1  0
 25 29  1  0
 26 27  1  0
 26 28  1  0
 29 30  2  0
 29 31  1  0
 31 32  1  0
 32 33  1  0
 32 40  1  0
 33 34  1  0
 34 35  2  0
 34 39  1  0
 35 36  1  0
 36 37  2  0
 37 38  1  0
 38 39  2  0
 40 41  2  0
 40 42  1  0
 42 43  1  0
 43 44  2  0
 43 48  1  0
 44 45  1  0
 45 46  2  0
 46 47  1  0
 46 50  1  0
 47 48  2  0
 48 49  1  0
 50 51  2  0
 50 52  1  0
M  CHG  2  50   1  52  -1
M  END
>  <s_m_entry_id>  (309) 
667

>  <s_m_entry_name>  (309) 
3C-like_protease_GHDDI_ligprep.286

>  <s_m_Source_Path>  (309) 
/home/jgilaber/drug_learning/drug_learning/datasets/SAR1/GHDDI

>  <s_m_Source_File>  (309) 
3C-like_protease_GHDDI_ligprep.sdf

>  <i_m_Source_File_Index>  (309) 
286

>  <s_m_subgroup_title>  (309) 
3C-like_protease_GHDDI_ligprep

>  <s_m_subgroupid>  (309) 
3C-like_protease_GHDDI_ligprep

>  <b_m_subgroup_collapsed>  (309) 
0

$$$$
13788
     RDKit          2D

 52 55  0  0  1  0  0  0  0  0999 V2000
   -1.5444    1.8357    0.0000 O   0  0  0  0  0  0  0  0  0  0  0  0
   -0.6523    0.6298    0.0000 C   0  0  0  0  0  0  0  0  0  0  0  0
   -1.2506   -0.7457    0.0000 C   0  0  0  0  0  0  0  0  0  0  0  0
   -0.3586   -1.9516    0.0000 O   0  0  0  0  0  0  0  0  0  0  0  0
   -2.7410   -0.9153    0.0000 C   0  0  0  0  0  0  0  0  0  0  0  0
   -3.6331    0.2906    0.0000 O   0  0  0  0  0  0  0  0  0  0  0  0
   -3.3393   -2.2908    0.0000 N   0  0  0  0  0  0  0  0  0  0  0  0
   -4.8297   -2.4604    0.0000 C   0  0  0  0  0  0  0  0  0  0  0  0
   -5.4280   -3.8359    0.0000 C   0  0  0  0  0  0  0  0  0  0  0  0
   -4.5360   -5.0418    0.0000 C   0  0  0  0  0  0  0  0  0  0  0  0
   -5.1343   -6.4173    0.0000 C   0  0  0  0  0  0  0  0  0  0  0  0
   -4.2422   -7.6233    0.0000 C   0  0  0  0  0  0  0  0  0  0  0  0
   -2.7519   -7.4537    0.0000 C   0  0  0  0  0  0  0  0  0  0  0  0
   -2.1535   -6.0782    0.0000 C   0  0  0  0  0  0  0  0  0  0  0  0
   -3.0456   -4.8722    0.0000 C   0  0  0  0  0  0  0  0  0  0  0  0
   -5.7218   -1.2545    0.0000 C   0  0  0  0  0  0  0  0  0  0  0  0
   -7.2122   -1.4241    0.0000 O   0  0  0  0  0  0  0  0  0  0  0  0
   -5.1235    0.1210    0.0000 N   0  0  0  0  0  0  0  0  0  0  0  0
   -6.0155    1.3269    0.0000 C   0  0  0  0  0  0  0  0  0  0  0  0
   -5.4172    2.7024    0.0000 C   0  0  0  0  0  0  0  0  0  0  0  0
   -6.3093    3.9083    0.0000 C   0  0  0  0  0  0  0  0  0  0  0  0
   -7.7996    3.7387    0.0000 C   0  0  0  0  0  0  0  0  0  0  0  0
   -8.3980    2.3632    0.0000 C   0  0  0  0  0  0  0  0  0  0  0  0
   -7.5059    1.1573    0.0000 C   0  0  0  0  0  0  0  0  0  0  0  0
   -8.1042   -0.2182    0.0000 Cl  0  0  0  0  0  0  0  0  0  0  0  0
   -8.6917    4.9447    0.0000 N   0  0  0  0  0  0  0  0  0  0  0  0
  -10.1821    4.7751    0.0000 O   0  0  0  0  0  0  0  0  0  0  0  0
   -8.0934    6.3202    0.0000 O   0  0  0  0  0  0  0  0  0  0  0  0
    0.8381    0.7994    0.0000 C   0  0  0  0  0  0  0  0  0  0  0  0
    1.7301   -0.4066    0.0000 O   0  0  0  0  0  0  0  0  0  0  0  0
    1.4364    2.1749    0.0000 N   0  0  0  0  0  0  0  0  0  0  0  0
    2.9268    2.3445    0.0000 C   0  0  0  0  0  0  0  0  0  0  0  0
    3.5251    3.7200    0.0000 C   0  0  0  0  0  0  0  0  0  0  0  0
    5.0155    3.8895    0.0000 C   0  0  0  0  0  0  0  0  0  0  0  0
    5.9075    2.6836    0.0000 C   0  0  0  0  0  0  0  0  0  0  0  0
    7.3979    2.8532    0.0000 C   0  0  0  0  0  0  0  0  0  0  0  0
    7.9962    4.2287    0.0000 C   0  0  0  0  0  0  0  0  0  0  0  0
    7.1042    5.4346    0.0000 C   0  0  0  0  0  0  0  0  0  0  0  0
    5.6138    5.2650    0.0000 C   0  0  0  0  0  0  0  0  0  0  0  0
    3.8188    1.1385    0.0000 C   0  0  0  0  0  0  0  0  0  0  0  0
    3.2205   -0.2370    0.0000 O   0  0  0  0  0  0  0  0  0  0  0  0
    5.3092    1.3081    0.0000 N   0  0  0  0  0  0  0  0  0  0  0  0
    6.2013    0.1022    0.0000 C   0  0  0  0  0  0  0  0  0  0  0  0
    5.6030   -1.2733    0.0000 C   0  0  0  0  0  0  0  0  0  0  0  0
    6.4950   -2.4792    0.0000 C   0  0  0  0  0  0  0  0  0  0  0  0
    7.9854   -2.3096    0.0000 C   0  0  0  0  0  0  0  0  0  0  0  0
    8.5837   -0.9341    0.0000 C   0  0  0  0  0  0  0  0  0  0  0  0
    7.6917    0.2718    0.0000 C   0  0  0  0  0  0  0  0  0  0  0  0
    8.2900    1.6473    0.0000 Cl  0  0  0  0  0  0  0  0  0  0  0  0
    8.8775   -3.5155    0.0000 N   0  0  0  0  0  0  0  0  0  0  0  0
   10.3678   -3.3459    0.0000 O   0  0  0  0  0  0  0  0  0  0  0  0
    8.2791   -4.8910    0.0000 O   0  0  0  0  0  0  0  0  0  0  0  0
  1  2  1  0
  2  3  1  0
  2 29  1  0
  3  4  1  0
  3  5  1  0
  5  6  2  0
  5  7  1  0
  7  8  1  0
  8  9  1  0
  8 16  1  0
  9 10  1  0
 10 11  2  0
 10 15  1  0
 11 12  1  0
 12 13  2  0
 13 14  1  0
 14 15  2  0
 16 17  2  0
 16 18  1  0
 18 19  1  0
 19 20  2  0
 19 24  1  0
 20 21  1  0
 21 22  2  0
 22 23  1  0
 22 26  1  0
 23 24  2  0
 24 25  1  0
 26 27  2  0
 26 28  1  0
 29 30  2  0
 29 31  1  0
 31 32  1  0
 32 33  1  0
 32 40  1  0
 33 34  1  0
 34 35  2  0
 34 39  1  0
 35 36  1  0
 36 37  2  0
 37 38  1  0
 38 39  2  0
 40 41  2  0
 40 42  1  0
 42 43  1  0
 43 44  2  0
 43 48  1  0
 44 45  1  0
 45 46  2  0
 46 47  1  0
 46 50  1  0
 47 48  2  0
 48 49  1  0
 50 51  2  0
 50 52  1  0
M  CHG  4  26   1  28  -1  50   1  52  -1
M  END
>  <s_m_entry_id>  (310) 
668

>  <s_m_entry_name>  (310) 
3C-like_protease_GHDDI_ligprep.287

>  <s_m_Source_Path>  (310) 
/home/jgilaber/drug_learning/drug_learning/datasets/SAR1/GHDDI

>  <s_m_Source_File>  (310) 
3C-like_protease_GHDDI_ligprep.sdf

>  <i_m_Source_File_Index>  (310) 
287

>  <s_m_subgroup_title>  (310) 
3C-like_protease_GHDDI_ligprep

>  <s_m_subgroupid>  (310) 
3C-like_protease_GHDDI_ligprep

>  <b_m_subgroup_collapsed>  (310) 
0

$$$$
13789
     RDKit          2D

 35 36  0  0  1  0  0  0  0  0999 V2000
   -2.4996    4.8718    0.0000 C   0  0  0  0  0  0  0  0  0  0  0  0
   -1.7257    3.5868    0.0000 C   0  0  0  0  0  0  0  0  0  0  0  0
   -2.4515    2.2741    0.0000 C   0  0  0  0  0  0  0  0  0  0  0  0
   -0.2259    3.6146    0.0000 C   0  0  0  0  0  0  0  0  0  0  0  0
    0.5480    2.3297    0.0000 C   0  0  0  0  0  0  0  0  0  0  0  0
    2.0477    2.3574    0.0000 N   0  0  0  0  0  0  0  0  0  0  0  0
    2.8216    1.0725    0.0000 C   0  0  0  0  0  0  0  0  0  0  0  0
    2.0958   -0.2402    0.0000 O   0  0  0  0  0  0  0  0  0  0  0  0
    4.3214    1.1003    0.0000 O   0  0  0  0  0  0  0  0  0  0  0  0
    5.0953   -0.1847    0.0000 C   0  0  0  0  0  0  0  0  0  0  0  0
    6.5950   -0.1569    0.0000 C   0  0  0  0  0  0  0  0  0  0  0  0
    7.3690   -1.4419    0.0000 C   0  0  0  0  0  0  0  0  0  0  0  0
    8.8687   -1.4141    0.0000 C   0  0  0  0  0  0  0  0  0  0  0  0
    9.5945   -0.1014    0.0000 C   0  0  0  0  0  0  0  0  0  0  0  0
    8.8206    1.1835    0.0000 C   0  0  0  0  0  0  0  0  0  0  0  0
    7.3209    1.1558    0.0000 C   0  0  0  0  0  0  0  0  0  0  0  0
   -0.1778    1.0170    0.0000 C   0  0  0  0  0  0  0  0  0  0  0  0
    0.5961   -0.2680    0.0000 O   0  0  0  0  0  0  0  0  0  0  0  0
   -1.6776    0.9892    0.0000 N   0  0  0  0  0  0  0  0  0  0  0  0
   -2.4034   -0.3235    0.0000 C   0  0  0  0  0  0  0  0  0  0  0  0
   -3.9032   -0.3513    0.0000 C   0  0  0  0  0  0  0  0  0  0  0  0
   -4.6771    0.9337    0.0000 C   0  0  0  0  0  0  0  0  0  0  0  0
   -4.0924    2.3151    0.0000 C   0  0  0  0  0  0  0  0  0  0  0  0
   -5.2255    3.2979    0.0000 C   0  0  0  0  0  0  0  0  0  0  0  0
   -6.5105    2.5240    0.0000 N   0  0  0  0  0  0  0  0  0  0  0  0
   -6.1715    1.0628    0.0000 C   0  0  0  0  0  0  0  0  0  0  0  0
   -7.1544   -0.0703    0.0000 O   0  0  0  0  0  0  0  0  0  0  0  0
   -1.6295   -1.6084    0.0000 C   0  0  0  0  0  0  0  0  0  0  0  0
   -0.1298   -1.5807    0.0000 O   0  0  0  0  0  0  0  0  0  0  0  0
   -2.3553   -2.9211    0.0000 C   0  0  0  0  0  0  0  0  0  0  0  0
   -3.8551   -2.9489    0.0000 O   0  0  0  0  0  0  0  0  0  0  0  0
   -1.5814   -4.2061    0.0000 N   0  0  0  0  0  0  0  0  0  0  0  0
   -2.3072   -5.5188    0.0000 C   0  0  0  0  0  0  0  0  0  0  0  0
   -1.5333   -6.8037    0.0000 C   0  0  0  0  0  0  0  0  0  0  0  0
   -3.8070   -5.5465    0.0000 C   0  0  0  0  0  0  0  0  0  0  0  0
  1  2  1  0
  2  3  1  0
  2  4  1  0
  4  5  1  0
  5  6  1  0
  5 17  1  0
  6  7  1  0
  7  8  2  0
  7  9  1  0
  9 10  1  0
 10 11  1  0
 11 12  2  0
 11 16  1  0
 12 13  1  0
 13 14  2  0
 14 15  1  0
 15 16  2  0
 17 18  2  0
 17 19  1  0
 19 20  1  0
 20 21  1  0
 20 28  1  0
 21 22  1  0
 22 23  1  0
 22 26  1  0
 23 24  1  0
 24 25  1  0
 25 26  1  0
 26 27  2  0
 28 29  2  0
 28 30  1  0
 30 31  2  0
 30 32  1  0
 32 33  1  0
 33 34  1  0
 33 35  1  0
M  END
>  <s_m_entry_id>  (311) 
670

>  <s_m_entry_name>  (311) 
3C-like_protease_GHDDI_ligprep.289

>  <s_m_Source_Path>  (311) 
/home/jgilaber/drug_learning/drug_learning/datasets/SAR1/GHDDI

>  <s_m_Source_File>  (311) 
3C-like_protease_GHDDI_ligprep.sdf

>  <i_m_Source_File_Index>  (311) 
289

>  <s_m_subgroup_title>  (311) 
3C-like_protease_GHDDI_ligprep

>  <s_m_subgroupid>  (311) 
3C-like_protease_GHDDI_ligprep

>  <b_m_subgroup_collapsed>  (311) 
0

$$$$
13790
     RDKit          2D

 33 36  0  0  1  0  0  0  0  0999 V2000
   -6.1868    1.9545    0.0000 C   0  0  0  0  0  0  0  0  0  0  0  0
   -5.7806    0.5106    0.0000 C   0  0  0  0  0  0  0  0  0  0  0  0
   -5.3744   -0.9334    0.0000 C   0  0  0  0  0  0  0  0  0  0  0  0
   -7.2246    0.1044    0.0000 C   0  0  0  0  0  0  0  0  0  0  0  0
   -4.3367    0.9168    0.0000 N   0  0  0  0  0  0  0  0  0  0  0  0
   -3.2629   -0.1306    0.0000 C   0  0  0  0  0  0  0  0  0  0  0  0
   -3.6331   -1.5842    0.0000 O   0  0  0  0  0  0  0  0  0  0  0  0
   -1.8190    0.2756    0.0000 C   0  0  0  0  0  0  0  0  0  0  0  0
   -0.7452   -0.7718    0.0000 N   0  0  0  0  0  0  0  0  0  0  0  0
   -1.1154   -2.2254    0.0000 C   0  0  0  0  0  0  0  0  0  0  0  0
   -2.5593   -2.6316    0.0000 O   0  0  0  0  0  0  0  0  0  0  0  0
   -0.0416   -3.2728    0.0000 C   0  0  0  0  0  0  0  0  0  0  0  0
    1.4369   -3.0197    0.0000 C   0  0  0  0  0  0  0  0  0  0  0  0
    2.1344   -4.3477    0.0000 N   0  0  0  0  0  0  0  0  0  0  0  0
    1.0870   -5.4214    0.0000 C   0  0  0  0  0  0  0  0  0  0  0  0
   -0.2578   -4.7571    0.0000 N   0  0  0  0  0  0  0  0  0  0  0  0
    0.6988   -0.3656    0.0000 C   0  0  0  0  0  0  0  0  0  0  0  0
    1.7725   -1.4130    0.0000 C   0  0  0  0  0  0  0  0  0  0  0  0
    3.2165   -1.0068    0.0000 C   0  0  0  0  0  0  0  0  0  0  0  0
    3.5867    0.4468    0.0000 C   0  0  0  0  0  0  0  0  0  0  0  0
    2.5129    1.4942    0.0000 C   0  0  0  0  0  0  0  0  0  0  0  0
    1.0689    1.0880    0.0000 C   0  0  0  0  0  0  0  0  0  0  0  0
    5.0306    0.8530    0.0000 C   0  0  0  0  0  0  0  0  0  0  0  0
    5.5507    2.2600    0.0000 C   0  0  0  0  0  0  0  0  0  0  0  0
    7.0495    2.2001    0.0000 C   0  0  0  0  0  0  0  0  0  0  0  0
    7.4557    0.7562    0.0000 C   0  0  0  0  0  0  0  0  0  0  0  0
    6.2080   -0.0764    0.0000 C   0  0  0  0  0  0  0  0  0  0  0  0
   -1.4488    1.7292    0.0000 C   0  0  0  0  0  0  0  0  0  0  0  0
   -2.5225    2.7766    0.0000 C   0  0  0  0  0  0  0  0  0  0  0  0
   -2.1523    4.2302    0.0000 C   0  0  0  0  0  0  0  0  0  0  0  0
   -0.7084    4.6364    0.0000 C   0  0  0  0  0  0  0  0  0  0  0  0
    0.3654    3.5890    0.0000 N   0  0  0  0  0  0  0  0  0  0  0  0
   -0.0048    2.1354    0.0000 C   0  0  0  0  0  0  0  0  0  0  0  0
  1  2  1  0
  2  3  1  0
  2  4  1  0
  2  5  1  0
  5  6  1  0
  6  7  2  0
  6  8  1  0
  8  9  1  0
  8 28  1  0
  9 10  1  0
  9 17  1  0
 10 11  2  0
 10 12  1  0
 12 13  2  0
 12 16  1  0
 13 14  1  0
 14 15  2  0
 15 16  1  0
 17 18  2  0
 17 22  1  0
 18 19  1  0
 19 20  2  0
 20 21  1  0
 20 23  1  0
 21 22  2  0
 23 24  1  0
 23 27  1  0
 24 25  1  0
 25 26  1  0
 26 27  1  0
 28 29  2  0
 28 33  1  0
 29 30  1  0
 30 31  2  0
 31 32  1  0
 32 33  2  0
M  END
>  <s_m_entry_id>  (312) 
672

>  <s_m_entry_name>  (312) 
3C-like_protease_GHDDI_ligprep.291

>  <s_m_Source_Path>  (312) 
/home/jgilaber/drug_learning/drug_learning/datasets/SAR1/GHDDI

>  <s_m_Source_File>  (312) 
3C-like_protease_GHDDI_ligprep.sdf

>  <i_m_Source_File_Index>  (312) 
291

>  <s_m_subgroup_title>  (312) 
3C-like_protease_GHDDI_ligprep

>  <s_m_subgroupid>  (312) 
3C-like_protease_GHDDI_ligprep

>  <b_m_subgroup_collapsed>  (312) 
0

$$$$
13791
     RDKit          2D

 33 37  0  0  1  0  0  0  0  0999 V2000
   -6.7033   -2.4877    0.0000 C   0  0  0  0  0  0  0  0  0  0  0  0
   -5.2054   -2.5663    0.0000 C   0  0  0  0  0  0  0  0  0  0  0  0
   -4.3883   -1.3084    0.0000 N   0  0  0  0  0  0  0  0  0  0  0  0
   -2.8903   -1.2300    0.0000 C   0  0  0  0  0  0  0  0  0  0  0  0
   -1.9465   -2.3958    0.0000 C   0  0  0  0  0  0  0  0  0  0  0  0
   -0.4649   -2.1612    0.0000 C   0  0  0  0  0  0  0  0  0  0  0  0
    0.0728   -0.7609    0.0000 C   0  0  0  0  0  0  0  0  0  0  0  0
    1.5543   -0.5264    0.0000 C   0  0  0  0  0  0  0  0  0  0  0  0
    2.6149   -1.5871    0.0000 N   0  0  0  0  0  0  0  0  0  0  0  0
    2.3801   -3.0687    0.0000 C   0  0  0  0  0  0  0  0  0  0  0  0
    3.5458   -4.0127    0.0000 C   0  0  0  0  0  0  0  0  0  0  0  0
    3.9515   -0.9063    0.0000 C   0  0  0  0  0  0  0  0  0  0  0  0
    5.3518   -1.4439    0.0000 C   0  0  0  0  0  0  0  0  0  0  0  0
    6.5176   -0.5000    0.0000 C   0  0  0  0  0  0  0  0  0  0  0  0
    6.2830    0.9815    0.0000 C   0  0  0  0  0  0  0  0  0  0  0  0
    7.4488    1.9254    0.0000 C   0  0  0  0  0  0  0  0  0  0  0  0
    7.2143    3.4069    0.0000 C   0  0  0  0  0  0  0  0  0  0  0  0
    5.8140    3.9446    0.0000 C   0  0  0  0  0  0  0  0  0  0  0  0
    4.6482    3.0007    0.0000 C   0  0  0  0  0  0  0  0  0  0  0  0
    4.8827    1.5192    0.0000 C   0  0  0  0  0  0  0  0  0  0  0  0
    3.7169    0.5753    0.0000 C   0  0  0  0  0  0  0  0  0  0  0  0
    2.2354    0.8101    0.0000 S   0  0  0  0  0  0  0  0  0  0  0  0
    0.4790   -3.3270    0.0000 C   0  0  0  0  0  0  0  0  0  0  0  0
   -0.0587   -4.7274    0.0000 C   0  0  0  0  0  0  0  0  0  0  0  0
   -2.5020    0.2189    0.0000 S   0  0  0  0  0  0  0  0  0  0  0  0
   -3.7599    1.0359    0.0000 C   0  0  0  0  0  0  0  0  0  0  0  0
   -3.9945    2.5175    0.0000 C   0  0  0  0  0  0  0  0  0  0  0  0
   -5.3948    3.0552    0.0000 C   0  0  0  0  0  0  0  0  0  0  0  0
   -5.6293    4.5367    0.0000 C   0  0  0  0  0  0  0  0  0  0  0  0
   -6.5606    2.1113    0.0000 C   0  0  0  0  0  0  0  0  0  0  0  0
   -7.9609    2.6489    0.0000 C   0  0  0  0  0  0  0  0  0  0  0  0
   -6.3261    0.6297    0.0000 C   0  0  0  0  0  0  0  0  0  0  0  0
   -4.9257    0.0921    0.0000 C   0  0  0  0  0  0  0  0  0  0  0  0
  1  2  1  0
  2  3  1  0
  3  4  2  0
  3 33  1  0
  4  5  1  0
  4 25  1  0
  5  6  1  0
  6  7  2  0
  6 23  1  0
  7  8  1  0
  8  9  2  0
  8 22  1  0
  9 10  1  0
  9 12  1  0
 10 11  1  0
 12 13  2  0
 12 21  1  0
 13 14  1  0
 14 15  2  0
 15 16  1  0
 15 20  1  0
 16 17  1  0
 17 18  1  0
 18 19  1  0
 19 20  1  0
 20 21  2  0
 21 22  1  0
 23 24  1  0
 25 26  1  0
 26 27  1  0
 26 33  2  0
 27 28  2  0
 28 29  1  0
 28 30  1  0
 30 31  1  0
 30 32  2  0
 32 33  1  0
M  CHG  2   3   1   9   1
M  END
>  <s_m_entry_id>  (313) 
676

>  <s_m_entry_name>  (313) 
3C-like_protease_GHDDI_ligprep.295

>  <s_m_Source_Path>  (313) 
/home/jgilaber/drug_learning/drug_learning/datasets/SAR1/GHDDI

>  <s_m_Source_File>  (313) 
3C-like_protease_GHDDI_ligprep.sdf

>  <i_m_Source_File_Index>  (313) 
295

>  <s_m_subgroup_title>  (313) 
3C-like_protease_GHDDI_ligprep

>  <s_m_subgroupid>  (313) 
3C-like_protease_GHDDI_ligprep

>  <b_m_subgroup_collapsed>  (313) 
0

$$$$
13792
     RDKit          2D

 27 30  0  0  1  0  0  0  0  0999 V2000
   -7.2919    1.7546    0.0000 C   0  0  0  0  0  0  0  0  0  0  0  0
   -6.2748    0.6521    0.0000 N   0  0  0  0  0  0  0  0  0  0  0  0
   -6.5690   -0.8188    0.0000 C   0  0  0  0  0  0  0  0  0  0  0  0
   -7.9319   -1.4454    0.0000 O   0  0  0  0  0  0  0  0  0  0  0  0
   -5.2610   -1.5531    0.0000 C   0  0  0  0  0  0  0  0  0  0  0  0
   -5.0863   -3.0429    0.0000 O   0  0  0  0  0  0  0  0  0  0  0  0
   -4.1585   -0.5360    0.0000 C   0  0  0  0  0  0  0  0  0  0  0  0
   -2.6649   -0.6749    0.0000 C   0  0  0  0  0  0  0  0  0  0  0  0
   -1.7979    0.5492    0.0000 C   0  0  0  0  0  0  0  0  0  0  0  0
   -2.4245    1.9121    0.0000 C   0  0  0  0  0  0  0  0  0  0  0  0
   -3.9181    2.0509    0.0000 C   0  0  0  0  0  0  0  0  0  0  0  0
   -4.7851    0.8268    0.0000 C   0  0  0  0  0  0  0  0  0  0  0  0
   -0.3044    0.4104    0.0000 S   0  0  0  0  0  0  0  0  0  0  0  0
   -0.4432   -1.0832    0.0000 O   0  0  0  0  0  0  0  0  0  0  0  0
   -0.1656    1.9039    0.0000 O   0  0  0  0  0  0  0  0  0  0  0  0
    1.1892    0.2716    0.0000 N   0  0  0  0  0  0  0  0  0  0  0  0
    1.8158   -1.0913    0.0000 C   0  0  0  0  0  0  0  0  0  0  0  0
    3.3093   -1.2301    0.0000 C   0  0  0  0  0  0  0  0  0  0  0  0
    4.1763   -0.0061    0.0000 N   0  0  0  0  0  0  0  0  0  0  0  0
    3.5498    1.3568    0.0000 C   0  0  0  0  0  0  0  0  0  0  0  0
    2.0562    1.4956    0.0000 C   0  0  0  0  0  0  0  0  0  0  0  0
    5.6699   -0.1449    0.0000 C   0  0  0  0  0  0  0  0  0  0  0  0
    6.2964   -1.5078    0.0000 C   0  0  0  0  0  0  0  0  0  0  0  0
    7.7900   -1.6466    0.0000 C   0  0  0  0  0  0  0  0  0  0  0  0
    8.6570   -0.4225    0.0000 C   0  0  0  0  0  0  0  0  0  0  0  0
    8.0304    0.9403    0.0000 C   0  0  0  0  0  0  0  0  0  0  0  0
    6.5369    1.0792    0.0000 N   0  0  0  0  0  0  0  0  0  0  0  0
  1  2  1  0
  2  3  1  0
  2 12  1  0
  3  4  2  0
  3  5  1  0
  5  6  2  0
  5  7  1  0
  7  8  2  0
  7 12  1  0
  8  9  1  0
  9 10  2  0
  9 13  1  0
 10 11  1  0
 11 12  2  0
 13 14  2  0
 13 15  2  0
 13 16  1  0
 16 17  1  0
 16 21  1  0
 17 18  1  0
 18 19  1  0
 19 20  1  0
 19 22  1  0
 20 21  1  0
 22 23  2  0
 22 27  1  0
 23 24  1  0
 24 25  2  0
 25 26  1  0
 26 27  2  0
M  END
>  <s_m_entry_id>  (314) 
677

>  <s_m_entry_name>  (314) 
3C-like_protease_GHDDI_ligprep.296

>  <s_m_Source_Path>  (314) 
/home/jgilaber/drug_learning/drug_learning/datasets/SAR1/GHDDI

>  <s_m_Source_File>  (314) 
3C-like_protease_GHDDI_ligprep.sdf

>  <i_m_Source_File_Index>  (314) 
296

>  <s_m_subgroup_title>  (314) 
3C-like_protease_GHDDI_ligprep

>  <s_m_subgroupid>  (314) 
3C-like_protease_GHDDI_ligprep

>  <b_m_subgroup_collapsed>  (314) 
0

$$$$
13793
     RDKit          2D

 33 37  0  0  1  0  0  0  0  0999 V2000
   -9.0735   -1.9051    0.0000 O   0  0  0  0  0  0  0  0  0  0  0  0
   -7.5751   -1.9742    0.0000 C   0  0  0  0  0  0  0  0  0  0  0  0
   -6.8857   -3.3064    0.0000 O   0  0  0  0  0  0  0  0  0  0  0  0
   -6.7660   -0.7111    0.0000 C   0  0  0  0  0  0  0  0  0  0  0  0
   -7.4554    0.6211    0.0000 C   0  0  0  0  0  0  0  0  0  0  0  0
   -6.6464    1.8843    0.0000 C   0  0  0  0  0  0  0  0  0  0  0  0
   -5.1480    1.8152    0.0000 C   0  0  0  0  0  0  0  0  0  0  0  0
   -4.4586    0.4830    0.0000 C   0  0  0  0  0  0  0  0  0  0  0  0
   -5.2676   -0.7801    0.0000 C   0  0  0  0  0  0  0  0  0  0  0  0
   -2.9602    0.4139    0.0000 N   0  0  0  0  0  0  0  0  0  0  0  0
   -2.0236    1.5856    0.0000 N   0  0  0  0  0  0  0  0  0  0  0  0
   -0.6199    1.0569    0.0000 C   0  0  0  0  0  0  0  0  0  0  0  0
   -0.6889   -0.4415    0.0000 C   0  0  0  0  0  0  0  0  0  0  0  0
    0.4827   -1.3782    0.0000 C   0  0  0  0  0  0  0  0  0  0  0  0
    1.8797   -0.8318    0.0000 C   0  0  0  0  0  0  0  0  0  0  0  0
    3.1428   -1.6408    0.0000 O   0  0  0  0  0  0  0  0  0  0  0  0
    4.3025   -0.6895    0.0000 C   0  0  0  0  0  0  0  0  0  0  0  0
    3.7562    0.7074    0.0000 C   0  0  0  0  0  0  0  0  0  0  0  0
    2.2588    0.6195    0.0000 C   0  0  0  0  0  0  0  0  0  0  0  0
    5.7539   -1.0686    0.0000 C   0  0  0  0  0  0  0  0  0  0  0  0
    6.8078   -0.0013    0.0000 C   0  0  0  0  0  0  0  0  0  0  0  0
    8.2591   -0.3804    0.0000 C   0  0  0  0  0  0  0  0  0  0  0  0
    8.6565   -1.8268    0.0000 C   0  0  0  0  0  0  0  0  0  0  0  0
    7.6025   -2.8941    0.0000 C   0  0  0  0  0  0  0  0  0  0  0  0
    6.1512   -2.5150    0.0000 C   0  0  0  0  0  0  0  0  0  0  0  0
   -2.1353   -0.8389    0.0000 C   0  0  0  0  0  0  0  0  0  0  0  0
   -2.6641   -2.2426    0.0000 O   0  0  0  0  0  0  0  0  0  0  0  0
    0.6330    1.8817    0.0000 C   0  0  0  0  0  0  0  0  0  0  0  0
    1.9737    1.2092    0.0000 C   0  0  0  0  0  0  0  0  0  0  0  0
    3.2266    2.0340    0.0000 C   0  0  0  0  0  0  0  0  0  0  0  0
    3.1386    3.5315    0.0000 C   0  0  0  0  0  0  0  0  0  0  0  0
    1.7979    4.2040    0.0000 C   0  0  0  0  0  0  0  0  0  0  0  0
    0.5450    3.3791    0.0000 C   0  0  0  0  0  0  0  0  0  0  0  0
  1  2  1  0
  2  3  2  0
  2  4  1  0
  4  5  2  0
  4  9  1  0
  5  6  1  0
  6  7  2  0
  7  8  1  0
  8  9  2  0
  8 10  1  0
 10 11  1  0
 10 26  1  0
 11 12  2  0
 12 13  1  0
 12 28  1  0
 13 14  2  0
 13 26  1  0
 14 15  1  0
 15 16  1  0
 15 19  2  0
 16 17  1  0
 17 18  2  0
 17 20  1  0
 18 19  1  0
 20 21  2  0
 20 25  1  0
 21 22  1  0
 22 23  2  0
 23 24  1  0
 24 25  2  0
 26 27  2  0
 28 29  2  0
 28 33  1  0
 29 30  1  0
 30 31  2  0
 31 32  1  0
 32 33  2  0
M  CHG  1   1  -1
M  END
>  <s_m_entry_id>  (315) 
678

>  <s_m_entry_name>  (315) 
3C-like_protease_GHDDI_ligprep.297

>  <s_m_Source_Path>  (315) 
/home/jgilaber/drug_learning/drug_learning/datasets/SAR1/GHDDI

>  <s_m_Source_File>  (315) 
3C-like_protease_GHDDI_ligprep.sdf

>  <i_m_Source_File_Index>  (315) 
297

>  <s_m_subgroup_title>  (315) 
3C-like_protease_GHDDI_ligprep

>  <s_m_subgroupid>  (315) 
3C-like_protease_GHDDI_ligprep

>  <b_m_subgroup_collapsed>  (315) 
0

$$$$
13794
     RDKit          2D

 29 30  0  0  1  0  0  0  0  0999 V2000
  -10.0260   -0.4806    0.0000 C   0  0  0  0  0  0  0  0  0  0  0  0
   -8.5375   -0.2953    0.0000 C   0  0  0  0  0  0  0  0  0  0  0  0
   -7.6328   -1.4918    0.0000 C   0  0  0  0  0  0  0  0  0  0  0  0
   -6.1443   -1.3065    0.0000 C   0  0  0  0  0  0  0  0  0  0  0  0
   -5.2396   -2.5029    0.0000 C   0  0  0  0  0  0  0  0  0  0  0  0
   -3.7511   -2.3176    0.0000 C   0  0  0  0  0  0  0  0  0  0  0  0
   -3.1673   -0.9359    0.0000 C   0  0  0  0  0  0  0  0  0  0  0  0
   -1.6788   -0.7506    0.0000 C   0  0  0  0  0  0  0  0  0  0  0  0
   -1.0950    0.6311    0.0000 C   0  0  0  0  0  0  0  0  0  0  0  0
   -1.9997    1.8275    0.0000 C   0  0  0  0  0  0  0  0  0  0  0  0
   -3.4882    1.6423    0.0000 O   0  0  0  0  0  0  0  0  0  0  0  0
   -1.4159    3.2093    0.0000 C   0  0  0  0  0  0  0  0  0  0  0  0
    0.0726    3.3945    0.0000 C   0  0  0  0  0  0  0  0  0  0  0  0
    0.9774    2.1981    0.0000 C   0  0  0  0  0  0  0  0  0  0  0  0
    2.4659    2.3834    0.0000 C   0  0  0  0  0  0  0  0  0  0  0  0
    3.0497    3.7651    0.0000 O   0  0  0  0  0  0  0  0  0  0  0  0
    3.3706    1.1869    0.0000 C   0  0  0  0  0  0  0  0  0  0  0  0
    4.8591    1.3722    0.0000 C   0  0  0  0  0  0  0  0  0  0  0  0
    5.7638    0.1758    0.0000 C   0  0  0  0  0  0  0  0  0  0  0  0
    5.1800   -1.2060    0.0000 C   0  0  0  0  0  0  0  0  0  0  0  0
    6.0847   -2.4024    0.0000 C   0  0  0  0  0  0  0  0  0  0  0  0
    7.5732   -2.2171    0.0000 C   0  0  0  0  0  0  0  0  0  0  0  0
    8.4779   -3.4136    0.0000 O   0  0  0  0  0  0  0  0  0  0  0  0
    8.1570   -0.8354    0.0000 C   0  0  0  0  0  0  0  0  0  0  0  0
    7.2523    0.3610    0.0000 C   0  0  0  0  0  0  0  0  0  0  0  0
    0.3936    0.8164    0.0000 C   0  0  0  0  0  0  0  0  0  0  0  0
    1.2983   -0.3801    0.0000 O   0  0  0  0  0  0  0  0  0  0  0  0
   -2.8464   -3.5141    0.0000 C   0  0  0  0  0  0  0  0  0  0  0  0
   -7.9537    1.0864    0.0000 C   0  0  0  0  0  0  0  0  0  0  0  0
  1  2  1  0
  2  3  2  3
  2 29  1  0
  3  4  1  0
  4  5  1  0
  5  6  1  0
  6  7  2  0
  6 28  1  0
  7  8  1  0
  8  9  1  0
  9 10  2  0
  9 26  1  0
 10 11  1  0
 10 12  1  0
 12 13  2  0
 13 14  1  0
 14 15  1  0
 14 26  2  0
 15 16  2  0
 15 17  1  0
 17 18  2  0
 18 19  1  0
 19 20  2  0
 19 25  1  0
 20 21  1  0
 21 22  2  0
 22 23  1  0
 22 24  1  0
 24 25  2  0
 26 27  1  0
M  END
>  <s_m_entry_id>  (316) 
681

>  <s_m_entry_name>  (316) 
3C-like_protease_GHDDI_ligprep.300

>  <s_m_Source_Path>  (316) 
/home/jgilaber/drug_learning/drug_learning/datasets/SAR1/GHDDI

>  <s_m_Source_File>  (316) 
3C-like_protease_GHDDI_ligprep.sdf

>  <i_m_Source_File_Index>  (316) 
300

>  <s_m_subgroup_title>  (316) 
3C-like_protease_GHDDI_ligprep

>  <s_m_subgroupid>  (316) 
3C-like_protease_GHDDI_ligprep

>  <b_m_subgroup_collapsed>  (316) 
0

$$$$
13796
     RDKit          2D

 48 51  0  0  1  0  0  0  0  0999 V2000
   -5.6706    3.3777    0.0000 C   0  0  0  0  0  0  0  0  0  0  0  0
   -4.3627    2.6433    0.0000 C   0  0  0  0  0  0  0  0  0  0  0  0
   -3.0727    3.4087    0.0000 C   0  0  0  0  0  0  0  0  0  0  0  0
   -4.3448    1.1434    0.0000 C   0  0  0  0  0  0  0  0  0  0  0  0
   -5.6348    0.3779    0.0000 N   0  0  0  0  0  0  0  0  0  0  0  0
   -6.9427    1.1124    0.0000 C   0  0  0  0  0  0  0  0  0  0  0  0
   -6.9606    2.6123    0.0000 O   0  0  0  0  0  0  0  0  0  0  0  0
   -8.2327    0.3470    0.0000 C   0  0  0  0  0  0  0  0  0  0  0  0
   -8.3717   -1.1466    0.0000 C   0  0  0  0  0  0  0  0  0  0  0  0
   -9.8351   -1.4759    0.0000 C   0  0  0  0  0  0  0  0  0  0  0  0
  -10.4288   -2.8534    0.0000 C   0  0  0  0  0  0  0  0  0  0  0  0
  -10.6005   -0.1859    0.0000 O   0  0  0  0  0  0  0  0  0  0  0  0
   -9.6102    0.9407    0.0000 N   0  0  0  0  0  0  0  0  0  0  0  0
   -3.0369    0.4089    0.0000 C   0  0  0  0  0  0  0  0  0  0  0  0
   -1.7469    1.1743    0.0000 O   0  0  0  0  0  0  0  0  0  0  0  0
   -3.0190   -1.0910    0.0000 C   0  0  0  0  0  0  0  0  0  0  0  0
   -1.7111   -1.8254    0.0000 C   0  0  0  0  0  0  0  0  0  0  0  0
   -1.6933   -3.3253    0.0000 C   0  0  0  0  0  0  0  0  0  0  0  0
   -0.3854   -4.0598    0.0000 C   0  0  0  0  0  0  0  0  0  0  0  0
   -0.3675   -5.5597    0.0000 C   0  0  0  0  0  0  0  0  0  0  0  0
    0.9404   -6.2942    0.0000 C   0  0  0  0  0  0  0  0  0  0  0  0
    2.2304   -5.5287    0.0000 C   0  0  0  0  0  0  0  0  0  0  0  0
    2.2125   -4.0288    0.0000 C   0  0  0  0  0  0  0  0  0  0  0  0
    0.9046   -3.2944    0.0000 C   0  0  0  0  0  0  0  0  0  0  0  0
   -0.4211   -1.0600    0.0000 C   0  0  0  0  0  0  0  0  0  0  0  0
    0.8868   -1.7945    0.0000 O   0  0  0  0  0  0  0  0  0  0  0  0
   -0.4390    0.4399    0.0000 N   0  0  0  0  0  0  0  0  0  0  0  0
    0.8510    1.2053    0.0000 C   0  0  0  0  0  0  0  0  0  0  0  0
    0.8331    2.7052    0.0000 C   0  0  0  0  0  0  0  0  0  0  0  0
    2.1231    3.4706    0.0000 C   0  0  0  0  0  0  0  0  0  0  0  0
    3.4310    2.7362    0.0000 C   0  0  0  0  0  0  0  0  0  0  0  0
    4.7210    3.5016    0.0000 C   0  0  0  0  0  0  0  0  0  0  0  0
    4.7031    5.0015    0.0000 C   0  0  0  0  0  0  0  0  0  0  0  0
    3.3952    5.7360    0.0000 C   0  0  0  0  0  0  0  0  0  0  0  0
    2.1052    4.9705    0.0000 C   0  0  0  0  0  0  0  0  0  0  0  0
    2.1589    0.4709    0.0000 C   0  0  0  0  0  0  0  0  0  0  0  0
    2.1768   -1.0290    0.0000 O   0  0  0  0  0  0  0  0  0  0  0  0
    3.4489    1.2363    0.0000 N   0  0  0  0  0  0  0  0  0  0  0  0
    4.7568    0.5018    0.0000 C   0  0  0  0  0  0  0  0  0  0  0  0
    4.7746   -0.9981    0.0000 C   0  0  0  0  0  0  0  0  0  0  0  0
    6.0825   -1.7325    0.0000 C   0  0  0  0  0  0  0  0  0  0  0  0
    7.3725   -0.9671    0.0000 C   0  0  0  0  0  0  0  0  0  0  0  0
    7.3547    0.5328    0.0000 C   0  0  0  0  0  0  0  0  0  0  0  0
    6.0468    1.2673    0.0000 C   0  0  0  0  0  0  0  0  0  0  0  0
    6.0289    2.7672    0.0000 Cl  0  0  0  0  0  0  0  0  0  0  0  0
    8.6804   -1.7016    0.0000 N   0  0  0  0  0  0  0  0  0  0  0  0
    9.9704   -0.9361    0.0000 O   0  0  0  0  0  0  0  0  0  0  0  0
    8.6983   -3.2015    0.0000 O   0  0  0  0  0  0  0  0  0  0  0  0
  1  2  1  0
  2  3  1  0
  2  4  1  0
  4  5  1  0
  4 14  1  0
  5  6  1  0
  6  7  2  0
  6  8  1  0
  8  9  1  0
  8 13  2  0
  9 10  2  0
 10 11  1  0
 10 12  1  0
 12 13  1  0
 14 15  2  0
 14 16  1  0
 16 17  1  0
 17 18  1  0
 17 25  1  0
 18 19  1  0
 19 20  2  0
 19 24  1  0
 20 21  1  0
 21 22  2  0
 22 23  1  0
 23 24  2  0
 25 26  2  0
 25 27  1  0
 27 28  1  0
 28 29  1  0
 28 36  1  0
 29 30  1  0
 30 31  2  0
 30 35  1  0
 31 32  1  0
 32 33  2  0
 33 34  1  0
 34 35  2  0
 36 37  2  0
 36 38  1  0
 38 39  1  0
 39 40  2  0
 39 44  1  0
 40 41  1  0
 41 42  2  0
 42 43  1  0
 42 46  1  0
 43 44  2  0
 44 45  1  0
 46 47  2  0
 46 48  1  0
M  CHG  2  46   1  48  -1
M  END
>  <s_m_entry_id>  (317) 
684

>  <s_m_entry_name>  (317) 
3C-like_protease_GHDDI_ligprep.303

>  <s_m_Source_Path>  (317) 
/home/jgilaber/drug_learning/drug_learning/datasets/SAR1/GHDDI

>  <s_m_Source_File>  (317) 
3C-like_protease_GHDDI_ligprep.sdf

>  <i_m_Source_File_Index>  (317) 
303

>  <s_m_subgroup_title>  (317) 
3C-like_protease_GHDDI_ligprep

>  <s_m_subgroupid>  (317) 
3C-like_protease_GHDDI_ligprep

>  <b_m_subgroup_collapsed>  (317) 
0

$$$$
13797
     RDKit          2D

 32 35  0  0  1  0  0  0  0  0999 V2000
    8.9826   -2.3911    0.0000 C   0  0  0  0  0  0  0  0  0  0  0  0
    8.5208   -0.9640    0.0000 C   0  0  0  0  0  0  0  0  0  0  0  0
    9.5259    0.1495    0.0000 C   0  0  0  0  0  0  0  0  0  0  0  0
    7.0540   -0.6503    0.0000 C   0  0  0  0  0  0  0  0  0  0  0  0
    6.0489   -1.7638    0.0000 C   0  0  0  0  0  0  0  0  0  0  0  0
    4.5821   -1.4501    0.0000 C   0  0  0  0  0  0  0  0  0  0  0  0
    4.1203   -0.0230    0.0000 C   0  0  0  0  0  0  0  0  0  0  0  0
    5.1254    1.0905    0.0000 C   0  0  0  0  0  0  0  0  0  0  0  0
    6.5922    0.7768    0.0000 C   0  0  0  0  0  0  0  0  0  0  0  0
    2.6534    0.2907    0.0000 N   0  0  0  0  0  0  0  0  0  0  0  0
    1.5375   -0.7116    0.0000 N   0  0  0  0  0  0  0  0  0  0  0  0
    0.2394    0.0400    0.0000 C   0  0  0  0  0  0  0  0  0  0  0  0
   -1.1317   -0.5685    0.0000 C   0  0  0  0  0  0  0  0  0  0  0  0
    0.5531    1.5068    0.0000 C   0  0  0  0  0  0  0  0  0  0  0  0
   -0.4493    2.6227    0.0000 C   0  0  0  0  0  0  0  0  0  0  0  0
   -1.9169    2.3127    0.0000 C   0  0  0  0  0  0  0  0  0  0  0  0
   -2.5287    0.9431    0.0000 O   0  0  0  0  0  0  0  0  0  0  0  0
   -4.0203    1.1017    0.0000 C   0  0  0  0  0  0  0  0  0  0  0  0
   -4.3303    2.5693    0.0000 C   0  0  0  0  0  0  0  0  0  0  0  0
   -3.0304    3.3177    0.0000 C   0  0  0  0  0  0  0  0  0  0  0  0
   -5.0253   -0.0118    0.0000 C   0  0  0  0  0  0  0  0  0  0  0  0
   -6.4922    0.3019    0.0000 C   0  0  0  0  0  0  0  0  0  0  0  0
   -7.4972   -0.8116    0.0000 C   0  0  0  0  0  0  0  0  0  0  0  0
   -8.9641   -0.4979    0.0000 Cl  0  0  0  0  0  0  0  0  0  0  0  0
   -7.0354   -2.2387    0.0000 C   0  0  0  0  0  0  0  0  0  0  0  0
   -5.5686   -2.5524    0.0000 C   0  0  0  0  0  0  0  0  0  0  0  0
   -4.5635   -1.4389    0.0000 C   0  0  0  0  0  0  0  0  0  0  0  0
   -3.0967   -1.7526    0.0000 C   0  0  0  0  0  0  0  0  0  0  0  0
   -2.0916   -0.6391    0.0000 O   0  0  0  0  0  0  0  0  0  0  0  0
   -2.6349   -3.1797    0.0000 O   0  0  0  0  0  0  0  0  0  0  0  0
    2.0450    1.6618    0.0000 C   0  0  0  0  0  0  0  0  0  0  0  0
    2.7966    2.9599    0.0000 O   0  0  0  0  0  0  0  0  0  0  0  0
  1  2  1  0
  2  3  1  0
  2  4  1  0
  4  5  2  0
  4  9  1  0
  5  6  1  0
  6  7  2  0
  7  8  1  0
  7 10  1  0
  8  9  2  0
 10 11  1  0
 10 31  1  0
 11 12  2  0
 12 13  1  0
 12 14  1  0
 14 15  2  0
 14 31  1  0
 15 16  1  0
 16 17  1  0
 16 20  2  0
 17 18  1  0
 18 19  2  0
 18 21  1  0
 19 20  1  0
 21 22  2  0
 21 27  1  0
 22 23  1  0
 23 24  1  0
 23 25  2  0
 25 26  1  0
 26 27  2  0
 27 28  1  0
 28 29  2  0
 28 30  1  0
 31 32  2  0
M  CHG  1  30  -1
M  END
>  <s_m_entry_id>  (318) 
685

>  <s_m_entry_name>  (318) 
3C-like_protease_GHDDI_ligprep.304

>  <s_m_Source_Path>  (318) 
/home/jgilaber/drug_learning/drug_learning/datasets/SAR1/GHDDI

>  <s_m_Source_File>  (318) 
3C-like_protease_GHDDI_ligprep.sdf

>  <i_m_Source_File_Index>  (318) 
304

>  <s_m_subgroup_title>  (318) 
3C-like_protease_GHDDI_ligprep

>  <s_m_subgroupid>  (318) 
3C-like_protease_GHDDI_ligprep

>  <b_m_subgroup_collapsed>  (318) 
0

$$$$
13800
     RDKit          2D

 32 34  0  0  1  0  0  0  0  0999 V2000
   -6.0525    1.4371    0.0000 C   0  0  0  0  0  0  0  0  0  0  0  0
   -5.5070    0.0399    0.0000 C   0  0  0  0  0  0  0  0  0  0  0  0
   -4.9614   -1.3574    0.0000 C   0  0  0  0  0  0  0  0  0  0  0  0
   -6.9042   -0.5057    0.0000 C   0  0  0  0  0  0  0  0  0  0  0  0
   -4.1097    0.5854    0.0000 N   0  0  0  0  0  0  0  0  0  0  0  0
   -2.9386   -0.3519    0.0000 C   0  0  0  0  0  0  0  0  0  0  0  0
   -3.1647   -1.8347    0.0000 O   0  0  0  0  0  0  0  0  0  0  0  0
   -1.5413    0.1937    0.0000 C   0  0  0  0  0  0  0  0  0  0  0  0
   -0.3702   -0.7436    0.0000 N   0  0  0  0  0  0  0  0  0  0  0  0
   -0.5964   -2.2265    0.0000 C   0  0  0  0  0  0  0  0  0  0  0  0
   -1.9936   -2.7720    0.0000 O   0  0  0  0  0  0  0  0  0  0  0  0
    0.5747   -3.1638    0.0000 C   0  0  0  0  0  0  0  0  0  0  0  0
    2.0214   -2.7673    0.0000 C   0  0  0  0  0  0  0  0  0  0  0  0
    2.8455   -4.0206    0.0000 N   0  0  0  0  0  0  0  0  0  0  0  0
    1.9082   -5.1917    0.0000 C   0  0  0  0  0  0  0  0  0  0  0  0
    0.5048   -4.6621    0.0000 N   0  0  0  0  0  0  0  0  0  0  0  0
    1.0271   -0.1981    0.0000 C   0  0  0  0  0  0  0  0  0  0  0  0
    2.1982   -1.1354    0.0000 C   0  0  0  0  0  0  0  0  0  0  0  0
    3.5954   -0.5898    0.0000 C   0  0  0  0  0  0  0  0  0  0  0  0
    3.8216    0.8930    0.0000 C   0  0  0  0  0  0  0  0  0  0  0  0
    2.6505    1.8303    0.0000 C   0  0  0  0  0  0  0  0  0  0  0  0
    1.2532    1.2848    0.0000 C   0  0  0  0  0  0  0  0  0  0  0  0
    5.2189    1.4386    0.0000 C   0  0  0  0  0  0  0  0  0  0  0  0
    5.7644    0.0413    0.0000 C   0  0  0  0  0  0  0  0  0  0  0  0
    4.6733    2.8359    0.0000 C   0  0  0  0  0  0  0  0  0  0  0  0
    6.6162    1.9842    0.0000 C   0  0  0  0  0  0  0  0  0  0  0  0
   -1.3151    1.6765    0.0000 C   0  0  0  0  0  0  0  0  0  0  0  0
   -2.4862    2.6138    0.0000 C   0  0  0  0  0  0  0  0  0  0  0  0
   -2.2601    4.0967    0.0000 C   0  0  0  0  0  0  0  0  0  0  0  0
   -0.8628    4.6422    0.0000 C   0  0  0  0  0  0  0  0  0  0  0  0
    0.3083    3.7049    0.0000 N   0  0  0  0  0  0  0  0  0  0  0  0
    0.0821    2.2221    0.0000 C   0  0  0  0  0  0  0  0  0  0  0  0
  1  2  1  0
  2  3  1  0
  2  4  1  0
  2  5  1  0
  5  6  1  0
  6  7  2  0
  6  8  1  0
  8  9  1  0
  8 27  1  0
  9 10  1  0
  9 17  1  0
 10 11  2  0
 10 12  1  0
 12 13  2  0
 12 16  1  0
 13 14  1  0
 14 15  2  0
 15 16  1  0
 17 18  2  0
 17 22  1  0
 18 19  1  0
 19 20  2  0
 20 21  1  0
 20 23  1  0
 21 22  2  0
 23 24  1  0
 23 25  1  0
 23 26  1  0
 27 28  2  0
 27 32  1  0
 28 29  1  0
 29 30  2  0
 30 31  1  0
 31 32  2  0
M  END
>  <s_m_entry_id>  (319) 
689

>  <s_m_entry_name>  (319) 
3C-like_protease_GHDDI_ligprep.308

>  <s_m_Source_Path>  (319) 
/home/jgilaber/drug_learning/drug_learning/datasets/SAR1/GHDDI

>  <s_m_Source_File>  (319) 
3C-like_protease_GHDDI_ligprep.sdf

>  <i_m_Source_File_Index>  (319) 
308

>  <s_m_subgroup_title>  (319) 
3C-like_protease_GHDDI_ligprep

>  <s_m_subgroupid>  (319) 
3C-like_protease_GHDDI_ligprep

>  <b_m_subgroup_collapsed>  (319) 
0

$$$$
13801
     RDKit          2D

 37 41  0  0  1  0  0  0  0  0999 V2000
    0.3181    2.3963    0.0000 C   0  0  0  0  0  0  0  0  0  0  0  0
   -0.1390    0.9676    0.0000 C   0  0  0  0  0  0  0  0  0  0  0  0
    0.8696   -0.1426    0.0000 N   0  0  0  0  0  0  0  0  0  0  0  0
    0.5643   -1.6112    0.0000 C   0  0  0  0  0  0  0  0  0  0  0  0
   -0.8033   -2.2274    0.0000 C   0  0  0  0  0  0  0  0  0  0  0  0
   -2.0208   -1.3511    0.0000 C   0  0  0  0  0  0  0  0  0  0  0  0
   -3.3884   -1.9673    0.0000 C   0  0  0  0  0  0  0  0  0  0  0  0
   -4.6058   -1.0910    0.0000 C   0  0  0  0  0  0  0  0  0  0  0  0
   -6.0303   -1.5609    0.0000 N   0  0  0  0  0  0  0  0  0  0  0  0
   -6.4875   -2.9895    0.0000 C   0  0  0  0  0  0  0  0  0  0  0  0
   -7.9533   -3.3079    0.0000 C   0  0  0  0  0  0  0  0  0  0  0  0
   -6.9174   -0.3513    0.0000 C   0  0  0  0  0  0  0  0  0  0  0  0
   -8.4098   -0.2011    0.0000 C   0  0  0  0  0  0  0  0  0  0  0  0
   -9.0260    1.1665    0.0000 C   0  0  0  0  0  0  0  0  0  0  0  0
  -10.5185    1.3166    0.0000 C   0  0  0  0  0  0  0  0  0  0  0  0
   -8.1498    2.3839    0.0000 C   0  0  0  0  0  0  0  0  0  0  0  0
   -8.7659    3.7515    0.0000 C   0  0  0  0  0  0  0  0  0  0  0  0
   -6.6573    2.2337    0.0000 C   0  0  0  0  0  0  0  0  0  0  0  0
   -6.0411    0.8661    0.0000 C   0  0  0  0  0  0  0  0  0  0  0  0
   -4.6125    0.4090    0.0000 S   0  0  0  0  0  0  0  0  0  0  0  0
   -1.8706    0.1413    0.0000 C   0  0  0  0  0  0  0  0  0  0  0  0
   -3.0880    1.0176    0.0000 C   0  0  0  0  0  0  0  0  0  0  0  0
    1.8666   -2.3554    0.0000 S   0  0  0  0  0  0  0  0  0  0  0  0
    2.9769   -1.3468    0.0000 C   0  0  0  0  0  0  0  0  0  0  0  0
    4.4693   -1.4969    0.0000 C   0  0  0  0  0  0  0  0  0  0  0  0
    5.3456   -0.2795    0.0000 C   0  0  0  0  0  0  0  0  0  0  0  0
    6.8381   -0.4297    0.0000 C   0  0  0  0  0  0  0  0  0  0  0  0
    7.7143    0.7878    0.0000 C   0  0  0  0  0  0  0  0  0  0  0  0
    9.2068    0.6376    0.0000 C   0  0  0  0  0  0  0  0  0  0  0  0
    9.8230   -0.7300    0.0000 C   0  0  0  0  0  0  0  0  0  0  0  0
   11.3155   -0.8801    0.0000 C   0  0  0  0  0  0  0  0  0  0  0  0
   12.1917    0.3373    0.0000 C   0  0  0  0  0  0  0  0  0  0  0  0
   11.5755    1.7049    0.0000 C   0  0  0  0  0  0  0  0  0  0  0  0
   10.0831    1.8550    0.0000 C   0  0  0  0  0  0  0  0  0  0  0  0
    4.7294    1.0881    0.0000 C   0  0  0  0  0  0  0  0  0  0  0  0
    3.2369    1.2382    0.0000 C   0  0  0  0  0  0  0  0  0  0  0  0
    2.3607    0.0208    0.0000 C   0  0  0  0  0  0  0  0  0  0  0  0
  1  2  1  0
  2  3  1  0
  3  4  2  0
  3 37  1  0
  4  5  1  0
  4 23  1  0
  5  6  1  0
  6  7  2  0
  6 21  1  0
  7  8  1  0
  8  9  2  0
  8 20  1  0
  9 10  1  0
  9 12  1  0
 10 11  1  0
 12 13  2  0
 12 19  1  0
 13 14  1  0
 14 15  1  0
 14 16  2  0
 16 17  1  0
 16 18  1  0
 18 19  2  0
 19 20  1  0
 21 22  1  0
 23 24  1  0
 24 25  1  0
 24 37  2  0
 25 26  2  0
 26 27  1  0
 26 35  1  0
 27 28  2  0
 28 29  1  0
 29 30  2  0
 29 34  1  0
 30 31  1  0
 31 32  2  0
 32 33  1  0
 33 34  2  0
 35 36  2  0
 36 37  1  0
M  CHG  2   3   1   9   1
M  END
>  <s_m_entry_id>  (320) 
697

>  <s_m_entry_name>  (320) 
3C-like_protease_GHDDI_ligprep.316

>  <s_m_Source_Path>  (320) 
/home/jgilaber/drug_learning/drug_learning/datasets/SAR1/GHDDI

>  <s_m_Source_File>  (320) 
3C-like_protease_GHDDI_ligprep.sdf

>  <i_m_Source_File_Index>  (320) 
316

>  <s_m_subgroup_title>  (320) 
3C-like_protease_GHDDI_ligprep

>  <s_m_subgroupid>  (320) 
3C-like_protease_GHDDI_ligprep

>  <b_m_subgroup_collapsed>  (320) 
0

$$$$
13802
     RDKit          2D

 37 40  0  0  1  0  0  0  0  0999 V2000
    7.2814    4.5759    0.0000 C   0  0  0  0  0  0  0  0  0  0  0  0
    5.8422    4.9986    0.0000 C   0  0  0  0  0  0  0  0  0  0  0  0
    4.7565    3.9636    0.0000 C   0  0  0  0  0  0  0  0  0  0  0  0
    5.1101    2.5058    0.0000 O   0  0  0  0  0  0  0  0  0  0  0  0
    3.3173    4.3863    0.0000 N   0  0  0  0  0  0  0  0  0  0  0  0
    2.2317    3.3512    0.0000 C   0  0  0  0  0  0  0  0  0  0  0  0
    2.5852    1.8935    0.0000 C   0  0  0  0  0  0  0  0  0  0  0  0
    1.4996    0.8584    0.0000 C   0  0  0  0  0  0  0  0  0  0  0  0
    0.0603    1.2811    0.0000 C   0  0  0  0  0  0  0  0  0  0  0  0
   -0.2932    2.7388    0.0000 C   0  0  0  0  0  0  0  0  0  0  0  0
    0.7924    3.7739    0.0000 C   0  0  0  0  0  0  0  0  0  0  0  0
   -1.0253    0.2460    0.0000 N   0  0  0  0  0  0  0  0  0  0  0  0
   -2.4645    0.6687    0.0000 C   0  0  0  0  0  0  0  0  0  0  0  0
   -3.5502   -0.3663    0.0000 C   0  0  0  0  0  0  0  0  0  0  0  0
   -3.1966   -1.8241    0.0000 O   0  0  0  0  0  0  0  0  0  0  0  0
   -4.9894    0.0563    0.0000 N   0  0  0  0  0  0  0  0  0  0  0  0
   -6.0751   -0.9787    0.0000 C   0  0  0  0  0  0  0  0  0  0  0  0
   -7.1101    0.1069    0.0000 C   0  0  0  0  0  0  0  0  0  0  0  0
   -5.0400   -2.0644    0.0000 C   0  0  0  0  0  0  0  0  0  0  0  0
   -7.1607   -2.0138    0.0000 C   0  0  0  0  0  0  0  0  0  0  0  0
   -2.8181    2.1264    0.0000 C   0  0  0  0  0  0  0  0  0  0  0  0
   -4.2052    2.6973    0.0000 C   0  0  0  0  0  0  0  0  0  0  0  0
   -4.0910    4.1929    0.0000 C   0  0  0  0  0  0  0  0  0  0  0  0
   -2.6333    4.5465    0.0000 S   0  0  0  0  0  0  0  0  0  0  0  0
   -1.8466    3.2693    0.0000 C   0  0  0  0  0  0  0  0  0  0  0  0
   -0.6718   -1.2117    0.0000 C   0  0  0  0  0  0  0  0  0  0  0  0
   -1.7574   -2.2468    0.0000 O   0  0  0  0  0  0  0  0  0  0  0  0
    0.7674   -1.6344    0.0000 C   0  0  0  0  0  0  0  0  0  0  0  0
    1.1210   -3.0921    0.0000 N   0  0  0  0  0  0  0  0  0  0  0  0
    0.1495   -4.2350    0.0000 N   0  0  0  0  0  0  0  0  0  0  0  0
    0.9362   -5.5121    0.0000 N   0  0  0  0  0  0  0  0  0  0  0  0
    2.3939   -5.1586    0.0000 C   0  0  0  0  0  0  0  0  0  0  0  0
    3.6321   -6.0053    0.0000 C   0  0  0  0  0  0  0  0  0  0  0  0
    4.9845   -5.3564    0.0000 C   0  0  0  0  0  0  0  0  0  0  0  0
    5.0987   -3.8608    0.0000 C   0  0  0  0  0  0  0  0  0  0  0  0
    3.8605   -3.0140    0.0000 C   0  0  0  0  0  0  0  0  0  0  0  0
    2.5081   -3.6629    0.0000 C   0  0  0  0  0  0  0  0  0  0  0  0
  1  2  1  0
  2  3  1  0
  3  4  2  0
  3  5  1  0
  5  6  1  0
  6  7  2  0
  6 11  1  0
  7  8  1  0
  8  9  2  0
  9 10  1  0
  9 12  1  0
 10 11  2  0
 12 13  1  0
 12 26  1  0
 13 14  1  0
 13 21  1  0
 14 15  2  0
 14 16  1  0
 16 17  1  0
 17 18  1  0
 17 19  1  0
 17 20  1  0
 21 22  1  0
 21 25  2  0
 22 23  2  0
 23 24  1  0
 24 25  1  0
 26 27  2  0
 26 28  1  0
 28 29  1  0
 29 30  1  0
 29 37  1  0
 30 31  2  0
 31 32  1  0
 32 33  1  0
 32 37  2  0
 33 34  2  0
 34 35  1  0
 35 36  2  0
 36 37  1  0
M  END
>  <s_m_entry_id>  (321) 
698

>  <s_m_entry_name>  (321) 
3C-like_protease_GHDDI_ligprep.317

>  <s_m_Source_Path>  (321) 
/home/jgilaber/drug_learning/drug_learning/datasets/SAR1/GHDDI

>  <s_m_Source_File>  (321) 
3C-like_protease_GHDDI_ligprep.sdf

>  <i_m_Source_File_Index>  (321) 
317

>  <s_m_subgroup_title>  (321) 
3C-like_protease_GHDDI_ligprep

>  <s_m_subgroupid>  (321) 
3C-like_protease_GHDDI_ligprep

>  <b_m_subgroup_collapsed>  (321) 
0

$$$$
13804
     RDKit          2D

 27 28  0  0  1  0  0  0  0  0999 V2000
   -5.5828    2.1297    0.0000 C   0  0  0  0  0  0  0  0  0  0  0  0
   -4.5730    1.0205    0.0000 O   0  0  0  0  0  0  0  0  0  0  0  0
   -3.1075    1.3405    0.0000 C   0  0  0  0  0  0  0  0  0  0  0  0
   -2.6519    2.7697    0.0000 C   0  0  0  0  0  0  0  0  0  0  0  0
   -1.1864    3.0897    0.0000 C   0  0  0  0  0  0  0  0  0  0  0  0
   -0.1766    1.9805    0.0000 C   0  0  0  0  0  0  0  0  0  0  0  0
    1.2889    2.3005    0.0000 C   0  0  0  0  0  0  0  0  0  0  0  0
    1.7445    3.7297    0.0000 O   0  0  0  0  0  0  0  0  0  0  0  0
    2.2988    1.1914    0.0000 C   0  0  0  0  0  0  0  0  0  0  0  0
    3.7642    1.5114    0.0000 C   0  0  0  0  0  0  0  0  0  0  0  0
    4.7741    0.4023    0.0000 C   0  0  0  0  0  0  0  0  0  0  0  0
    4.3185   -1.0269    0.0000 C   0  0  0  0  0  0  0  0  0  0  0  0
    5.3283   -2.1360    0.0000 C   0  0  0  0  0  0  0  0  0  0  0  0
    6.7938   -1.8160    0.0000 C   0  0  0  0  0  0  0  0  0  0  0  0
    7.8037   -2.9251    0.0000 O   0  0  0  0  0  0  0  0  0  0  0  0
    7.2494   -0.3869    0.0000 C   0  0  0  0  0  0  0  0  0  0  0  0
    6.2396    0.7223    0.0000 C   0  0  0  0  0  0  0  0  0  0  0  0
   -0.6322    0.5514    0.0000 C   0  0  0  0  0  0  0  0  0  0  0  0
    0.3777   -0.5577    0.0000 O   0  0  0  0  0  0  0  0  0  0  0  0
   -2.0977    0.2314    0.0000 C   0  0  0  0  0  0  0  0  0  0  0  0
   -2.5533   -1.1977    0.0000 C   0  0  0  0  0  0  0  0  0  0  0  0
   -4.0187   -1.5177    0.0000 C   0  0  0  0  0  0  0  0  0  0  0  0
   -5.0286   -0.4086    0.0000 O   0  0  0  0  0  0  0  0  0  0  0  0
   -6.4941   -0.7286    0.0000 O   0  0  0  0  0  0  0  0  0  0  0  0
   -4.4743   -2.9469    0.0000 C   0  0  0  0  0  0  0  0  0  0  0  0
   -3.4645   -4.0560    0.0000 C   0  0  0  0  0  0  0  0  0  0  0  0
   -5.9398   -3.2669    0.0000 C   0  0  0  0  0  0  0  0  0  0  0  0
  1  2  1  0
  2  3  1  0
  3  4  2  0
  3 20  1  0
  4  5  1  0
  5  6  2  0
  6  7  1  0
  6 18  1  0
  7  8  2  0
  7  9  1  0
  9 10  2  0
 10 11  1  0
 11 12  2  0
 11 17  1  0
 12 13  1  0
 13 14  2  0
 14 15  1  0
 14 16  1  0
 16 17  2  0
 18 19  1  0
 18 20  2  0
 20 21  1  0
 21 22  1  0
 22 23  1  0
 22 25  1  0
 23 24  1  0
 25 26  2  0
 25 27  1  0
M  END
>  <s_m_entry_id>  (322) 
701

>  <s_m_entry_name>  (322) 
3C-like_protease_GHDDI_ligprep.320

>  <s_m_Source_Path>  (322) 
/home/jgilaber/drug_learning/drug_learning/datasets/SAR1/GHDDI

>  <s_m_Source_File>  (322) 
3C-like_protease_GHDDI_ligprep.sdf

>  <i_m_Source_File_Index>  (322) 
320

>  <s_m_subgroup_title>  (322) 
3C-like_protease_GHDDI_ligprep

>  <s_m_subgroupid>  (322) 
3C-like_protease_GHDDI_ligprep

>  <b_m_subgroup_collapsed>  (322) 
0

$$$$
13805
     RDKit          2D

 17 18  0  0  1  0  0  0  0  0999 V2000
   -5.2113    0.6151    0.0000 O   0  0  0  0  0  0  0  0  0  0  0  0
   -4.2451   -0.5323    0.0000 C   0  0  0  0  0  0  0  0  0  0  0  0
   -4.7556   -1.9427    0.0000 O   0  0  0  0  0  0  0  0  0  0  0  0
   -2.7684   -0.2692    0.0000 C   0  0  0  0  0  0  0  0  0  0  0  0
   -1.6875   -1.3092    0.0000 O   0  0  0  0  0  0  0  0  0  0  0  0
   -0.3643   -0.6027    0.0000 C   0  0  0  0  0  0  0  0  0  0  0  0
    1.0461   -1.1132    0.0000 N   0  0  0  0  0  0  0  0  0  0  0  0
    2.1935   -0.1469    0.0000 C   0  0  0  0  0  0  0  0  0  0  0  0
    1.9304    1.3298    0.0000 C   0  0  0  0  0  0  0  0  0  0  0  0
    0.5199    1.8403    0.0000 C   0  0  0  0  0  0  0  0  0  0  0  0
    0.2568    3.3171    0.0000 O   0  0  0  0  0  0  0  0  0  0  0  0
   -0.6274    0.8741    0.0000 C   0  0  0  0  0  0  0  0  0  0  0  0
   -2.1132    1.0802    0.0000 C   0  0  0  0  0  0  0  0  0  0  0  0
    3.6039   -0.6575    0.0000 C   0  0  0  0  0  0  0  0  0  0  0  0
    5.0144   -1.1680    0.0000 F   0  0  0  0  0  0  0  0  0  0  0  0
    3.0934   -2.0679    0.0000 F   0  0  0  0  0  0  0  0  0  0  0  0
    4.1144    0.7530    0.0000 F   0  0  0  0  0  0  0  0  0  0  0  0
  1  2  1  0
  2  3  2  0
  2  4  1  0
  4  5  1  0
  4 13  2  0
  5  6  1  0
  6  7  2  0
  6 12  1  0
  7  8  1  0
  8  9  2  0
  8 14  1  0
  9 10  1  0
 10 11  1  0
 10 12  2  0
 12 13  1  0
 14 15  1  0
 14 16  1  0
 14 17  1  0
M  CHG  2   1  -1  11  -1
M  END
>  <s_m_entry_id>  (323) 
703

>  <s_m_entry_name>  (323) 
3C-like_protease_GHDDI_ligprep.322

>  <s_m_Source_Path>  (323) 
/home/jgilaber/drug_learning/drug_learning/datasets/SAR1/GHDDI

>  <s_m_Source_File>  (323) 
3C-like_protease_GHDDI_ligprep.sdf

>  <i_m_Source_File_Index>  (323) 
322

>  <s_m_subgroup_title>  (323) 
3C-like_protease_GHDDI_ligprep

>  <s_m_subgroupid>  (323) 
3C-like_protease_GHDDI_ligprep

>  <b_m_subgroup_collapsed>  (323) 
0

$$$$
13806
     RDKit          2D

 22 24  0  0  1  0  0  0  0  0999 V2000
    1.7394    2.5647    0.0000 C   0  0  0  0  0  0  0  0  0  0  0  0
    1.9750    1.0833    0.0000 C   0  0  0  0  0  0  0  0  0  0  0  0
    0.9151    0.0219    0.0000 C   0  0  0  0  0  0  0  0  0  0  0  0
    1.5970   -1.3141    0.0000 S   0  0  0  0  0  0  0  0  0  0  0  0
    3.0783   -1.0785    0.0000 C   0  0  0  0  0  0  0  0  0  0  0  0
    4.2447   -2.0217    0.0000 C   0  0  0  0  0  0  0  0  0  0  0  0
    5.6447   -1.4832    0.0000 C   0  0  0  0  0  0  0  0  0  0  0  0
    5.8784   -0.0015    0.0000 C   0  0  0  0  0  0  0  0  0  0  0  0
    7.2784    0.5370    0.0000 Cl  0  0  0  0  0  0  0  0  0  0  0  0
    4.7120    0.9417    0.0000 C   0  0  0  0  0  0  0  0  0  0  0  0
    3.3120    0.4032    0.0000 C   0  0  0  0  0  0  0  0  0  0  0  0
   -0.5666    0.2556    0.0000 C   0  0  0  0  0  0  0  0  0  0  0  0
   -1.1051    1.6556    0.0000 O   0  0  0  0  0  0  0  0  0  0  0  0
   -1.5098   -0.9108    0.0000 C   0  0  0  0  0  0  0  0  0  0  0  0
   -2.9915   -0.6771    0.0000 C   0  0  0  0  0  0  0  0  0  0  0  0
   -4.0514   -1.7385    0.0000 O   0  0  0  0  0  0  0  0  0  0  0  0
   -5.3884   -1.0584    0.0000 C   0  0  0  0  0  0  0  0  0  0  0  0
   -6.7245   -1.7403    0.0000 O   0  0  0  0  0  0  0  0  0  0  0  0
   -5.1548    0.4233    0.0000 C   0  0  0  0  0  0  0  0  0  0  0  0
   -3.6734    0.6589    0.0000 C   0  0  0  0  0  0  0  0  0  0  0  0
   -2.9933    1.9959    0.0000 Cl  0  0  0  0  0  0  0  0  0  0  0  0
   -6.2161    1.4832    0.0000 Cl  0  0  0  0  0  0  0  0  0  0  0  0
  1  2  1  0
  2  3  2  0
  2 11  1  0
  3  4  1  0
  3 12  1  0
  4  5  1  0
  5  6  1  0
  5 11  2  0
  6  7  2  0
  7  8  1  0
  8  9  1  0
  8 10  2  0
 10 11  1  0
 12 13  2  0
 12 14  1  0
 14 15  1  0
 15 16  1  0
 15 20  1  0
 16 17  1  0
 17 18  2  0
 17 19  1  0
 19 20  2  0
 19 22  1  0
 20 21  1  0
M  END
>  <s_m_entry_id>  (324) 
704

>  <s_m_entry_name>  (324) 
3C-like_protease_GHDDI_ligprep.323

>  <s_m_Source_Path>  (324) 
/home/jgilaber/drug_learning/drug_learning/datasets/SAR1/GHDDI

>  <s_m_Source_File>  (324) 
3C-like_protease_GHDDI_ligprep.sdf

>  <i_m_Source_File_Index>  (324) 
323

>  <s_m_subgroup_title>  (324) 
3C-like_protease_GHDDI_ligprep

>  <s_m_subgroupid>  (324) 
3C-like_protease_GHDDI_ligprep

>  <b_m_subgroup_collapsed>  (324) 
0

$$$$
13807
     RDKit          2D

 32 34  0  0  1  0  0  0  0  0999 V2000
   -7.3163   -2.4487    0.0000 C   0  0  0  0  0  0  0  0  0  0  0  0
   -6.0374   -1.6649    0.0000 C   0  0  0  0  0  0  0  0  0  0  0  0
   -6.0767   -0.1654    0.0000 C   0  0  0  0  0  0  0  0  0  0  0  0
   -4.7191   -2.3805    0.0000 C   0  0  0  0  0  0  0  0  0  0  0  0
   -3.4402   -1.5967    0.0000 C   0  0  0  0  0  0  0  0  0  0  0  0
   -3.4795   -0.0972    0.0000 C   0  0  0  0  0  0  0  0  0  0  0  0
   -2.2006    0.6866    0.0000 C   0  0  0  0  0  0  0  0  0  0  0  0
   -0.8823   -0.0291    0.0000 C   0  0  0  0  0  0  0  0  0  0  0  0
   -0.8430   -1.5286    0.0000 C   0  0  0  0  0  0  0  0  0  0  0  0
   -2.1219   -2.3124    0.0000 C   0  0  0  0  0  0  0  0  0  0  0  0
    0.3966    0.7547    0.0000 N   0  0  0  0  0  0  0  0  0  0  0  0
    1.7148    0.0391    0.0000 C   0  0  0  0  0  0  0  0  0  0  0  0
    1.7542   -1.4604    0.0000 C   0  0  0  0  0  0  0  0  0  0  0  0
    0.4753   -2.2442    0.0000 O   0  0  0  0  0  0  0  0  0  0  0  0
    3.0724   -2.1761    0.0000 N   0  0  0  0  0  0  0  0  0  0  0  0
    3.1118   -3.6756    0.0000 C   0  0  0  0  0  0  0  0  0  0  0  0
    4.6113   -3.6362    0.0000 C   0  0  0  0  0  0  0  0  0  0  0  0
    1.6123   -3.7149    0.0000 C   0  0  0  0  0  0  0  0  0  0  0  0
    3.1511   -5.1751    0.0000 C   0  0  0  0  0  0  0  0  0  0  0  0
    2.9938    0.8229    0.0000 C   0  0  0  0  0  0  0  0  0  0  0  0
    4.3120    0.1072    0.0000 C   0  0  0  0  0  0  0  0  0  0  0  0
    5.5909    0.8910    0.0000 C   0  0  0  0  0  0  0  0  0  0  0  0
    5.5516    2.3905    0.0000 C   0  0  0  0  0  0  0  0  0  0  0  0
    4.2333    3.1062    0.0000 N   0  0  0  0  0  0  0  0  0  0  0  0
    2.9544    2.3223    0.0000 C   0  0  0  0  0  0  0  0  0  0  0  0
    0.3572    2.2542    0.0000 C   0  0  0  0  0  0  0  0  0  0  0  0
    1.6362    3.0380    0.0000 O   0  0  0  0  0  0  0  0  0  0  0  0
   -0.9610    2.9699    0.0000 C   0  0  0  0  0  0  0  0  0  0  0  0
   -1.1569    4.4570    0.0000 C   0  0  0  0  0  0  0  0  0  0  0  0
   -2.6318    4.7303    0.0000 N   0  0  0  0  0  0  0  0  0  0  0  0
   -3.3475    3.4121    0.0000 C   0  0  0  0  0  0  0  0  0  0  0  0
   -2.3149    2.3240    0.0000 N   0  0  0  0  0  0  0  0  0  0  0  0
  1  2  1  0
  2  3  1  0
  2  4  1  0
  4  5  1  0
  5  6  2  0
  5 10  1  0
  6  7  1  0
  7  8  2  0
  8  9  1  0
  8 11  1  0
  9 10  2  0
 11 12  1  0
 11 26  1  0
 12 13  1  0
 12 20  1  0
 13 14  2  0
 13 15  1  0
 15 16  1  0
 16 17  1  0
 16 18  1  0
 16 19  1  0
 20 21  2  0
 20 25  1  0
 21 22  1  0
 22 23  2  0
 23 24  1  0
 24 25  2  0
 26 27  2  0
 26 28  1  0
 28 29  2  0
 28 32  1  0
 29 30  1  0
 30 31  2  0
 31 32  1  0
M  END
>  <s_m_entry_id>  (325) 
706

>  <s_m_entry_name>  (325) 
3C-like_protease_GHDDI_ligprep.325

>  <s_m_Source_Path>  (325) 
/home/jgilaber/drug_learning/drug_learning/datasets/SAR1/GHDDI

>  <s_m_Source_File>  (325) 
3C-like_protease_GHDDI_ligprep.sdf

>  <i_m_Source_File_Index>  (325) 
325

>  <s_m_subgroup_title>  (325) 
3C-like_protease_GHDDI_ligprep

>  <s_m_subgroupid>  (325) 
3C-like_protease_GHDDI_ligprep

>  <b_m_subgroup_collapsed>  (325) 
0

$$$$
13808
     RDKit          2D

 41 42  0  0  1  0  0  0  0  0999 V2000
    8.5311   -1.4854    0.0000 C   0  0  0  0  0  0  0  0  0  0  0  0
    7.0649   -1.1689    0.0000 C   0  0  0  0  0  0  0  0  0  0  0  0
    6.6059    0.2592    0.0000 C   0  0  0  0  0  0  0  0  0  0  0  0
    7.6132    1.3707    0.0000 O   0  0  0  0  0  0  0  0  0  0  0  0
    5.1397    0.5758    0.0000 N   0  0  0  0  0  0  0  0  0  0  0  0
    4.6808    2.0038    0.0000 C   0  0  0  0  0  0  0  0  0  0  0  0
    5.6881    3.1153    0.0000 C   0  0  0  0  0  0  0  0  0  0  0  0
    7.1543    2.7988    0.0000 C   0  0  0  0  0  0  0  0  0  0  0  0
    5.2291    4.5434    0.0000 C   0  0  0  0  0  0  0  0  0  0  0  0
    3.2146    2.3204    0.0000 C   0  0  0  0  0  0  0  0  0  0  0  0
    2.7556    3.7485    0.0000 O   0  0  0  0  0  0  0  0  0  0  0  0
    2.2073    1.2089    0.0000 N   0  0  0  0  0  0  0  0  0  0  0  0
    0.7411    1.5255    0.0000 C   0  0  0  0  0  0  0  0  0  0  0  0
    0.2822    2.9536    0.0000 C   0  0  0  0  0  0  0  0  0  0  0  0
   -1.1841    3.2702    0.0000 C   0  0  0  0  0  0  0  0  0  0  0  0
   -1.6430    4.6982    0.0000 C   0  0  0  0  0  0  0  0  0  0  0  0
   -2.1913    2.1587    0.0000 C   0  0  0  0  0  0  0  0  0  0  0  0
   -0.2662    0.4140    0.0000 C   0  0  0  0  0  0  0  0  0  0  0  0
   -1.7324    0.7306    0.0000 O   0  0  0  0  0  0  0  0  0  0  0  0
    0.1928   -1.0140    0.0000 N   0  0  0  0  0  0  0  0  0  0  0  0
   -0.8145   -2.1255    0.0000 C   0  0  0  0  0  0  0  0  0  0  0  0
   -0.3556   -3.5536    0.0000 C   0  0  0  0  0  0  0  0  0  0  0  0
    1.1107   -3.8702    0.0000 C   0  0  0  0  0  0  0  0  0  0  0  0
    1.5696   -5.2982    0.0000 C   0  0  0  0  0  0  0  0  0  0  0  0
    3.0358   -5.6148    0.0000 C   0  0  0  0  0  0  0  0  0  0  0  0
    4.0431   -4.5033    0.0000 C   0  0  0  0  0  0  0  0  0  0  0  0
    3.5841   -3.0753    0.0000 C   0  0  0  0  0  0  0  0  0  0  0  0
    2.1179   -2.7587    0.0000 C   0  0  0  0  0  0  0  0  0  0  0  0
   -2.2807   -1.8090    0.0000 C   0  0  0  0  0  0  0  0  0  0  0  0
   -3.2880   -2.9204    0.0000 O   0  0  0  0  0  0  0  0  0  0  0  0
   -2.7397   -0.3809    0.0000 N   0  0  0  0  0  0  0  0  0  0  0  0
   -4.2059   -0.0643    0.0000 C   0  0  0  0  0  0  0  0  0  0  0  0
   -4.6648    1.3638    0.0000 C   0  0  0  0  0  0  0  0  0  0  0  0
   -6.1310    1.6803    0.0000 C   0  0  0  0  0  0  0  0  0  0  0  0
   -7.1383    0.5688    0.0000 C   0  0  0  0  0  0  0  0  0  0  0  0
   -6.6794   -0.8592    0.0000 C   0  0  0  0  0  0  0  0  0  0  0  0
   -5.2131   -1.1758    0.0000 C   0  0  0  0  0  0  0  0  0  0  0  0
   -4.7542   -2.6039    0.0000 Cl  0  0  0  0  0  0  0  0  0  0  0  0
   -8.6045    0.8854    0.0000 N   0  0  0  0  0  0  0  0  0  0  0  0
   -9.6118   -0.2261    0.0000 O   0  0  0  0  0  0  0  0  0  0  0  0
   -9.0635    2.3135    0.0000 O   0  0  0  0  0  0  0  0  0  0  0  0
  1  2  1  0
  2  3  1  0
  3  4  2  0
  3  5  1  0
  5  6  1  0
  6  7  1  0
  6 10  1  0
  7  8  1  0
  7  9  1  0
 10 11  2  0
 10 12  1  0
 12 13  1  0
 13 14  1  0
 13 18  1  0
 14 15  1  0
 15 16  1  0
 15 17  1  0
 18 19  2  0
 18 20  1  0
 20 21  1  0
 21 22  1  0
 21 29  1  0
 22 23  1  0
 23 24  2  0
 23 28  1  0
 24 25  1  0
 25 26  2  0
 26 27  1  0
 27 28  2  0
 29 30  2  0
 29 31  1  0
 31 32  1  0
 32 33  2  0
 32 37  1  0
 33 34  1  0
 34 35  2  0
 35 36  1  0
 35 39  1  0
 36 37  2  0
 37 38  1  0
 39 40  2  0
 39 41  1  0
M  CHG  2  39   1  41  -1
M  END
>  <s_m_entry_id>  (326) 
710

>  <s_m_entry_name>  (326) 
3C-like_protease_GHDDI_ligprep.329

>  <s_m_Source_Path>  (326) 
/home/jgilaber/drug_learning/drug_learning/datasets/SAR1/GHDDI

>  <s_m_Source_File>  (326) 
3C-like_protease_GHDDI_ligprep.sdf

>  <i_m_Source_File_Index>  (326) 
329

>  <s_m_subgroup_title>  (326) 
3C-like_protease_GHDDI_ligprep

>  <s_m_subgroupid>  (326) 
3C-like_protease_GHDDI_ligprep

>  <b_m_subgroup_collapsed>  (326) 
0

$$$$
13809
     RDKit          2D

 48 49  0  0  1  0  0  0  0  0999 V2000
    5.3242   -5.3239    0.0000 C   0  0  0  0  0  0  0  0  0  0  0  0
    4.7209   -3.9506    0.0000 C   0  0  0  0  0  0  0  0  0  0  0  0
    5.6086   -2.7414    0.0000 C   0  0  0  0  0  0  0  0  0  0  0  0
    7.0996   -2.9056    0.0000 O   0  0  0  0  0  0  0  0  0  0  0  0
    5.0053   -1.3681    0.0000 N   0  0  0  0  0  0  0  0  0  0  0  0
    5.8930   -0.1590    0.0000 C   0  0  0  0  0  0  0  0  0  0  0  0
    7.3840   -0.3232    0.0000 C   0  0  0  0  0  0  0  0  0  0  0  0
    7.9873   -1.6965    0.0000 C   0  0  0  0  0  0  0  0  0  0  0  0
    8.2717    0.8859    0.0000 C   0  0  0  0  0  0  0  0  0  0  0  0
    5.2897    1.2144    0.0000 C   0  0  0  0  0  0  0  0  0  0  0  0
    6.1774    2.4235    0.0000 O   0  0  0  0  0  0  0  0  0  0  0  0
    3.7988    1.3786    0.0000 N   0  0  0  0  0  0  0  0  0  0  0  0
    3.1955    2.7519    0.0000 C   0  0  0  0  0  0  0  0  0  0  0  0
    4.0832    3.9610    0.0000 C   0  0  0  0  0  0  0  0  0  0  0  0
    3.4799    5.3344    0.0000 C   0  0  0  0  0  0  0  0  0  0  0  0
    4.3676    6.5435    0.0000 C   0  0  0  0  0  0  0  0  0  0  0  0
    1.9889    5.4986    0.0000 C   0  0  0  0  0  0  0  0  0  0  0  0
    1.7045    2.9161    0.0000 C   0  0  0  0  0  0  0  0  0  0  0  0
    1.1012    4.2895    0.0000 O   0  0  0  0  0  0  0  0  0  0  0  0
    0.8168    1.7070    0.0000 N   0  0  0  0  0  0  0  0  0  0  0  0
   -0.6742    1.8712    0.0000 C   0  0  0  0  0  0  0  0  0  0  0  0
   -1.2775    3.2446    0.0000 C   0  0  0  0  0  0  0  0  0  0  0  0
   -0.3898    4.4537    0.0000 C   0  0  0  0  0  0  0  0  0  0  0  0
   -2.7685    3.4088    0.0000 O   0  0  0  0  0  0  0  0  0  0  0  0
   -1.5619    0.6621    0.0000 C   0  0  0  0  0  0  0  0  0  0  0  0
   -3.0529    0.8263    0.0000 O   0  0  0  0  0  0  0  0  0  0  0  0
   -0.9586   -0.7112    0.0000 N   0  0  0  0  0  0  0  0  0  0  0  0
   -1.8463   -1.9203    0.0000 C   0  0  0  0  0  0  0  0  0  0  0  0
   -1.2431   -3.2937    0.0000 C   0  0  0  0  0  0  0  0  0  0  0  0
    0.2479   -3.4579    0.0000 C   0  0  0  0  0  0  0  0  0  0  0  0
    0.8512   -4.8312    0.0000 C   0  0  0  0  0  0  0  0  0  0  0  0
    2.3422   -4.9955    0.0000 C   0  0  0  0  0  0  0  0  0  0  0  0
    3.2299   -3.7863    0.0000 C   0  0  0  0  0  0  0  0  0  0  0  0
    2.6266   -2.4130    0.0000 C   0  0  0  0  0  0  0  0  0  0  0  0
    1.1356   -2.2488    0.0000 C   0  0  0  0  0  0  0  0  0  0  0  0
   -3.3373   -1.7561    0.0000 C   0  0  0  0  0  0  0  0  0  0  0  0
   -4.2250   -2.9653    0.0000 O   0  0  0  0  0  0  0  0  0  0  0  0
   -3.9406   -0.3828    0.0000 N   0  0  0  0  0  0  0  0  0  0  0  0
   -5.4316   -0.2186    0.0000 C   0  0  0  0  0  0  0  0  0  0  0  0
   -6.0349    1.1548    0.0000 C   0  0  0  0  0  0  0  0  0  0  0  0
   -7.5258    1.3190    0.0000 C   0  0  0  0  0  0  0  0  0  0  0  0
   -8.4135    0.1099    0.0000 C   0  0  0  0  0  0  0  0  0  0  0  0
   -7.8103   -1.2635    0.0000 C   0  0  0  0  0  0  0  0  0  0  0  0
   -6.3193   -1.4277    0.0000 C   0  0  0  0  0  0  0  0  0  0  0  0
   -5.7160   -2.8010    0.0000 Cl  0  0  0  0  0  0  0  0  0  0  0  0
   -9.9045    0.2741    0.0000 N   0  0  0  0  0  0  0  0  0  0  0  0
  -10.7922   -0.9351    0.0000 O   0  0  0  0  0  0  0  0  0  0  0  0
  -10.5078    1.6474    0.0000 O   0  0  0  0  0  0  0  0  0  0  0  0
  1  2  1  0
  2  3  1  0
  3  4  2  0
  3  5  1  0
  5  6  1  0
  6  7  1  0
  6 10  1  0
  7  8  1  0
  7  9  1  0
 10 11  2  0
 10 12  1  0
 12 13  1  0
 13 14  1  0
 13 18  1  0
 14 15  1  0
 15 16  1  0
 15 17  1  0
 18 19  2  0
 18 20  1  0
 20 21  1  0
 21 22  1  0
 21 25  1  0
 22 23  1  0
 22 24  1  0
 25 26  2  0
 25 27  1  0
 27 28  1  0
 28 29  1  0
 28 36  1  0
 29 30  1  0
 30 31  2  0
 30 35  1  0
 31 32  1  0
 32 33  2  0
 33 34  1  0
 34 35  2  0
 36 37  2  0
 36 38  1  0
 38 39  1  0
 39 40  2  0
 39 44  1  0
 40 41  1  0
 41 42  2  0
 42 43  1  0
 42 46  1  0
 43 44  2  0
 44 45  1  0
 46 47  2  0
 46 48  1  0
M  CHG  2  46   1  48  -1
M  END
>  <s_m_entry_id>  (327) 
711

>  <s_m_entry_name>  (327) 
3C-like_protease_GHDDI_ligprep.330

>  <s_m_Source_Path>  (327) 
/home/jgilaber/drug_learning/drug_learning/datasets/SAR1/GHDDI

>  <s_m_Source_File>  (327) 
3C-like_protease_GHDDI_ligprep.sdf

>  <i_m_Source_File_Index>  (327) 
330

>  <s_m_subgroup_title>  (327) 
3C-like_protease_GHDDI_ligprep

>  <s_m_subgroupid>  (327) 
3C-like_protease_GHDDI_ligprep

>  <b_m_subgroup_collapsed>  (327) 
0

$$$$
13810
     RDKit          2D

 34 37  0  0  1  0  0  0  0  0999 V2000
   -2.6547    2.1582    0.0000 C   0  0  0  0  0  0  0  0  0  0  0  0
   -2.0680    0.7778    0.0000 C   0  0  0  0  0  0  0  0  0  0  0  0
   -2.9702   -0.4206    0.0000 N   0  0  0  0  0  0  0  0  0  0  0  0
   -2.5310   -1.8549    0.0000 C   0  0  0  0  0  0  0  0  0  0  0  0
   -1.1125   -2.3426    0.0000 C   0  0  0  0  0  0  0  0  0  0  0  0
    0.0191   -1.3580    0.0000 C   0  0  0  0  0  0  0  0  0  0  0  0
   -0.2677    0.1144    0.0000 C   0  0  0  0  0  0  0  0  0  0  0  0
    0.8639    1.0990    0.0000 C   0  0  0  0  0  0  0  0  0  0  0  0
    2.3256    0.7622    0.0000 N   0  0  0  0  0  0  0  0  0  0  0  0
    2.9123   -0.6183    0.0000 C   0  0  0  0  0  0  0  0  0  0  0  0
    4.4012   -0.8004    0.0000 C   0  0  0  0  0  0  0  0  0  0  0  0
    4.9879   -2.1809    0.0000 C   0  0  0  0  0  0  0  0  0  0  0  0
    6.4768   -2.3630    0.0000 S   0  0  0  0  0  0  0  0  0  0  0  0
    6.2947   -3.8519    0.0000 O   0  0  0  0  0  0  0  0  0  0  0  0
    6.6590   -0.8741    0.0000 O   0  0  0  0  0  0  0  0  0  0  0  0
    7.9657   -2.5451    0.0000 O   0  0  0  0  0  0  0  0  0  0  0  0
    3.0975    2.0483    0.0000 C   0  0  0  0  0  0  0  0  0  0  0  0
    4.5699    2.3352    0.0000 C   0  0  0  0  0  0  0  0  0  0  0  0
    5.0576    3.7537    0.0000 C   0  0  0  0  0  0  0  0  0  0  0  0
    4.0729    4.8853    0.0000 C   0  0  0  0  0  0  0  0  0  0  0  0
    2.6006    4.5984    0.0000 C   0  0  0  0  0  0  0  0  0  0  0  0
    2.1129    3.1799    0.0000 C   0  0  0  0  0  0  0  0  0  0  0  0
    0.7324    2.5932    0.0000 S   0  0  0  0  0  0  0  0  0  0  0  0
    1.4376   -1.8457    0.0000 O   0  0  0  0  0  0  0  0  0  0  0  0
    1.7245   -3.3180    0.0000 C   0  0  0  0  0  0  0  0  0  0  0  0
   -3.7593   -2.7158    0.0000 S   0  0  0  0  0  0  0  0  0  0  0  0
   -4.9577   -1.8136    0.0000 C   0  0  0  0  0  0  0  0  0  0  0  0
   -6.4300   -2.1005    0.0000 C   0  0  0  0  0  0  0  0  0  0  0  0
   -7.4146   -0.9689    0.0000 C   0  0  0  0  0  0  0  0  0  0  0  0
   -6.9269    0.4496    0.0000 C   0  0  0  0  0  0  0  0  0  0  0  0
   -7.9115    1.5812    0.0000 O   0  0  0  0  0  0  0  0  0  0  0  0
   -9.3838    1.2943    0.0000 C   0  0  0  0  0  0  0  0  0  0  0  0
   -5.4546    0.7365    0.0000 C   0  0  0  0  0  0  0  0  0  0  0  0
   -4.4700   -0.3951    0.0000 C   0  0  0  0  0  0  0  0  0  0  0  0
  1  2  1  0
  2  3  1  0
  3  4  2  0
  3 34  1  0
  4  5  1  0
  4 26  1  0
  5  6  1  0
  6  7  2  0
  6 24  1  0
  7  8  1  0
  8  9  2  0
  8 23  1  0
  9 10  1  0
  9 17  1  0
 10 11  1  0
 11 12  1  0
 12 13  1  0
 13 14  2  0
 13 15  2  0
 13 16  1  0
 17 18  2  0
 17 22  1  0
 18 19  1  0
 19 20  2  0
 20 21  1  0
 21 22  2  0
 22 23  1  0
 24 25  1  0
 26 27  1  0
 27 28  1  0
 27 34  2  0
 28 29  2  0
 29 30  1  0
 30 31  1  0
 30 33  2  0
 31 32  1  0
 33 34  1  0
M  CHG  3   3   1   9   1  16  -1
M  END
>  <s_m_entry_id>  (328) 
712

>  <s_m_entry_name>  (328) 
3C-like_protease_GHDDI_ligprep.331

>  <s_m_Source_Path>  (328) 
/home/jgilaber/drug_learning/drug_learning/datasets/SAR1/GHDDI

>  <s_m_Source_File>  (328) 
3C-like_protease_GHDDI_ligprep.sdf

>  <i_m_Source_File_Index>  (328) 
331

>  <s_m_subgroup_title>  (328) 
3C-like_protease_GHDDI_ligprep

>  <s_m_subgroupid>  (328) 
3C-like_protease_GHDDI_ligprep

>  <b_m_subgroup_collapsed>  (328) 
0

$$$$
13812
     RDKit          2D

 37 41  0  0  1  0  0  0  0  0999 V2000
   -8.3646   -1.6158    0.0000 C   0  0  0  0  0  0  0  0  0  0  0  0
   -7.4963   -2.8389    0.0000 C   0  0  0  0  0  0  0  0  0  0  0  0
   -6.6279   -4.0620    0.0000 C   0  0  0  0  0  0  0  0  0  0  0  0
   -8.7194   -3.7072    0.0000 C   0  0  0  0  0  0  0  0  0  0  0  0
   -6.2732   -1.9705    0.0000 C   0  0  0  0  0  0  0  0  0  0  0  0
   -6.4137   -0.4771    0.0000 C   0  0  0  0  0  0  0  0  0  0  0  0
   -5.1906    0.3913    0.0000 C   0  0  0  0  0  0  0  0  0  0  0  0
   -3.8270   -0.2338    0.0000 C   0  0  0  0  0  0  0  0  0  0  0  0
   -3.6865   -1.7272    0.0000 C   0  0  0  0  0  0  0  0  0  0  0  0
   -4.9096   -2.5955    0.0000 C   0  0  0  0  0  0  0  0  0  0  0  0
   -2.6039    0.6346    0.0000 N   0  0  0  0  0  0  0  0  0  0  0  0
   -2.5875    2.1345    0.0000 N   0  0  0  0  0  0  0  0  0  0  0  0
   -1.1560    2.5824    0.0000 C   0  0  0  0  0  0  0  0  0  0  0  0
   -0.2876    1.3593    0.0000 C   0  0  0  0  0  0  0  0  0  0  0  0
    1.2123    1.3429    0.0000 C   0  0  0  0  0  0  0  0  0  0  0  0
    1.9481    0.0358    0.0000 C   0  0  0  0  0  0  0  0  0  0  0  0
    3.4380   -0.1373    0.0000 O   0  0  0  0  0  0  0  0  0  0  0  0
    3.7339   -1.6078    0.0000 C   0  0  0  0  0  0  0  0  0  0  0  0
    2.4267   -2.3436    0.0000 C   0  0  0  0  0  0  0  0  0  0  0  0
    1.3230   -1.3278    0.0000 C   0  0  0  0  0  0  0  0  0  0  0  0
    5.0974   -2.2329    0.0000 C   0  0  0  0  0  0  0  0  0  0  0  0
    5.2379   -3.7263    0.0000 C   0  0  0  0  0  0  0  0  0  0  0  0
    6.6015   -4.3513    0.0000 C   0  0  0  0  0  0  0  0  0  0  0  0
    7.8246   -3.4830    0.0000 C   0  0  0  0  0  0  0  0  0  0  0  0
    7.6841   -1.9896    0.0000 C   0  0  0  0  0  0  0  0  0  0  0  0
    6.3205   -1.3645    0.0000 C   0  0  0  0  0  0  0  0  0  0  0  0
    6.1800    0.1289    0.0000 C   0  0  0  0  0  0  0  0  0  0  0  0
    4.8165    0.7539    0.0000 O   0  0  0  0  0  0  0  0  0  0  0  0
    7.4031    0.9972    0.0000 O   0  0  0  0  0  0  0  0  0  0  0  0
   -1.1825    0.1555    0.0000 C   0  0  0  0  0  0  0  0  0  0  0  0
   -0.7346   -1.2761    0.0000 O   0  0  0  0  0  0  0  0  0  0  0  0
   -0.6769    4.0038    0.0000 C   0  0  0  0  0  0  0  0  0  0  0  0
    0.7937    4.2997    0.0000 C   0  0  0  0  0  0  0  0  0  0  0  0
    1.2727    5.7211    0.0000 C   0  0  0  0  0  0  0  0  0  0  0  0
    0.2813    6.8467    0.0000 C   0  0  0  0  0  0  0  0  0  0  0  0
   -1.1893    6.5509    0.0000 C   0  0  0  0  0  0  0  0  0  0  0  0
   -1.6683    5.1295    0.0000 C   0  0  0  0  0  0  0  0  0  0  0  0
  1  2  1  0
  2  3  1  0
  2  4  1  0
  2  5  1  0
  5  6  2  0
  5 10  1  0
  6  7  1  0
  7  8  2  0
  8  9  1  0
  8 11  1  0
  9 10  2  0
 11 12  1  0
 11 30  1  0
 12 13  2  0
 13 14  1  0
 13 32  1  0
 14 15  2  0
 14 30  1  0
 15 16  1  0
 16 17  1  0
 16 20  2  0
 17 18  1  0
 18 19  2  0
 18 21  1  0
 19 20  1  0
 21 22  2  0
 21 26  1  0
 22 23  1  0
 23 24  2  0
 24 25  1  0
 25 26  2  0
 26 27  1  0
 27 28  2  0
 27 29  1  0
 30 31  2  0
 32 33  2  0
 32 37  1  0
 33 34  1  0
 34 35  2  0
 35 36  1  0
 36 37  2  0
M  CHG  1  29  -1
M  END
>  <s_m_entry_id>  (329) 
714

>  <s_m_entry_name>  (329) 
3C-like_protease_GHDDI_ligprep.333

>  <s_m_Source_Path>  (329) 
/home/jgilaber/drug_learning/drug_learning/datasets/SAR1/GHDDI

>  <s_m_Source_File>  (329) 
3C-like_protease_GHDDI_ligprep.sdf

>  <i_m_Source_File_Index>  (329) 
333

>  <s_m_subgroup_title>  (329) 
3C-like_protease_GHDDI_ligprep

>  <s_m_subgroupid>  (329) 
3C-like_protease_GHDDI_ligprep

>  <b_m_subgroup_collapsed>  (329) 
0

$$$$
13813
     RDKit          2D

 36 39  0  0  1  0  0  0  0  0999 V2000
    4.2820    6.6688    0.0000 C   0  0  0  0  0  0  0  0  0  0  0  0
    3.5463    5.3616    0.0000 C   0  0  0  0  0  0  0  0  0  0  0  0
    4.3106    4.0709    0.0000 O   0  0  0  0  0  0  0  0  0  0  0  0
    2.0464    5.3451    0.0000 N   0  0  0  0  0  0  0  0  0  0  0  0
    1.3108    4.0379    0.0000 C   0  0  0  0  0  0  0  0  0  0  0  0
    2.0750    2.7472    0.0000 C   0  0  0  0  0  0  0  0  0  0  0  0
    1.3394    1.4400    0.0000 C   0  0  0  0  0  0  0  0  0  0  0  0
   -0.1605    1.4234    0.0000 C   0  0  0  0  0  0  0  0  0  0  0  0
   -0.9248    2.7141    0.0000 C   0  0  0  0  0  0  0  0  0  0  0  0
   -0.1892    4.0214    0.0000 C   0  0  0  0  0  0  0  0  0  0  0  0
   -0.8962    0.1162    0.0000 N   0  0  0  0  0  0  0  0  0  0  0  0
   -2.3961    0.0997    0.0000 C   0  0  0  0  0  0  0  0  0  0  0  0
   -3.1317   -1.2075    0.0000 C   0  0  0  0  0  0  0  0  0  0  0  0
   -2.3675   -2.4982    0.0000 O   0  0  0  0  0  0  0  0  0  0  0  0
   -4.6317   -1.2240    0.0000 N   0  0  0  0  0  0  0  0  0  0  0  0
   -5.3673   -2.5313    0.0000 C   0  0  0  0  0  0  0  0  0  0  0  0
   -6.6745   -1.7956    0.0000 C   0  0  0  0  0  0  0  0  0  0  0  0
   -4.0601   -3.2669    0.0000 C   0  0  0  0  0  0  0  0  0  0  0  0
   -6.1029   -3.8385    0.0000 C   0  0  0  0  0  0  0  0  0  0  0  0
   -3.1604    1.3904    0.0000 C   0  0  0  0  0  0  0  0  0  0  0  0
   -4.6538    1.5308    0.0000 C   0  0  0  0  0  0  0  0  0  0  0  0
   -4.9818    2.9945    0.0000 C   0  0  0  0  0  0  0  0  0  0  0  0
   -3.6911    3.7587    0.0000 S   0  0  0  0  0  0  0  0  0  0  0  0
   -2.5654    2.7674    0.0000 C   0  0  0  0  0  0  0  0  0  0  0  0
   -0.1319   -1.1745    0.0000 C   0  0  0  0  0  0  0  0  0  0  0  0
   -0.8676   -2.4817    0.0000 O   0  0  0  0  0  0  0  0  0  0  0  0
    1.3680   -1.1580    0.0000 C   0  0  0  0  0  0  0  0  0  0  0  0
    2.1322   -2.4487    0.0000 N   0  0  0  0  0  0  0  0  0  0  0  0
    1.5373   -3.8256    0.0000 N   0  0  0  0  0  0  0  0  0  0  0  0
    2.6630   -4.8170    0.0000 N   0  0  0  0  0  0  0  0  0  0  0  0
    3.9537   -4.0527    0.0000 C   0  0  0  0  0  0  0  0  0  0  0  0
    5.3853   -4.5005    0.0000 C   0  0  0  0  0  0  0  0  0  0  0  0
    6.4889   -3.4846    0.0000 C   0  0  0  0  0  0  0  0  0  0  0  0
    6.1609   -2.0209    0.0000 C   0  0  0  0  0  0  0  0  0  0  0  0
    4.7293   -1.5731    0.0000 C   0  0  0  0  0  0  0  0  0  0  0  0
    3.6257   -2.5890    0.0000 C   0  0  0  0  0  0  0  0  0  0  0  0
  1  2  1  0
  2  3  2  0
  2  4  1  0
  4  5  1  0
  5  6  2  0
  5 10  1  0
  6  7  1  0
  7  8  2  0
  8  9  1  0
  8 11  1  0
  9 10  2  0
 11 12  1  0
 11 25  1  0
 12 13  1  0
 12 20  1  0
 13 14  2  0
 13 15  1  0
 15 16  1  0
 16 17  1  0
 16 18  1  0
 16 19  1  0
 20 21  1  0
 20 24  2  0
 21 22  2  0
 22 23  1  0
 23 24  1  0
 25 26  2  0
 25 27  1  0
 27 28  1  0
 28 29  1  0
 28 36  1  0
 29 30  2  0
 30 31  1  0
 31 32  1  0
 31 36  2  0
 32 33  2  0
 33 34  1  0
 34 35  2  0
 35 36  1  0
M  END
>  <s_m_entry_id>  (330) 
715

>  <s_m_entry_name>  (330) 
3C-like_protease_GHDDI_ligprep.334

>  <s_m_Source_Path>  (330) 
/home/jgilaber/drug_learning/drug_learning/datasets/SAR1/GHDDI

>  <s_m_Source_File>  (330) 
3C-like_protease_GHDDI_ligprep.sdf

>  <i_m_Source_File_Index>  (330) 
334

>  <s_m_subgroup_title>  (330) 
3C-like_protease_GHDDI_ligprep

>  <s_m_subgroupid>  (330) 
3C-like_protease_GHDDI_ligprep

>  <b_m_subgroup_collapsed>  (330) 
0

$$$$
13814
     RDKit          2D

 27 30  0  0  1  0  0  0  0  0999 V2000
   -6.0000    3.4641    0.0000 O   0  0  0  0  0  0  0  0  0  0  0  0
   -5.2500    2.1651    0.0000 C   0  0  0  0  0  0  0  0  0  0  0  0
   -6.0000    0.8660    0.0000 C   0  0  0  0  0  0  0  0  0  0  0  0
   -5.2500   -0.4330    0.0000 C   0  0  0  0  0  0  0  0  0  0  0  0
   -6.0000   -1.7321    0.0000 O   0  0  0  0  0  0  0  0  0  0  0  0
   -3.7500   -0.4330    0.0000 C   0  0  0  0  0  0  0  0  0  0  0  0
   -3.0000    0.8660    0.0000 C   0  0  0  0  0  0  0  0  0  0  0  0
   -1.5000    0.8660    0.0000 O   0  0  0  0  0  0  0  0  0  0  0  0
   -0.7500   -0.4330    0.0000 C   0  0  0  0  0  0  0  0  0  0  0  0
   -1.5000   -1.7321    0.0000 C   0  0  0  0  0  0  0  0  0  0  0  0
   -3.0000   -1.7321    0.0000 O   0  0  0  0  0  0  0  0  0  0  0  0
   -0.7500   -3.0311    0.0000 C   0  0  0  0  0  0  0  0  0  0  0  0
    0.7500   -3.0311    0.0000 C   0  0  0  0  0  0  0  0  0  0  0  0
    1.5000   -4.3301    0.0000 O   0  0  0  0  0  0  0  0  0  0  0  0
    1.5000   -1.7321    0.0000 C   0  0  0  0  0  0  0  0  0  0  0  0
    3.0000   -1.7321    0.0000 O   0  0  0  0  0  0  0  0  0  0  0  0
    3.7500   -0.4330    0.0000 C   0  0  0  0  0  0  0  0  0  0  0  0
    5.2500   -0.4330    0.0000 C   0  0  0  0  0  0  0  0  0  0  0  0
    6.0000    0.8660    0.0000 C   0  0  0  0  0  0  0  0  0  0  0  0
    7.5000    0.8660    0.0000 O   0  0  0  0  0  0  0  0  0  0  0  0
    5.2500    2.1651    0.0000 C   0  0  0  0  0  0  0  0  0  0  0  0
    3.7500    2.1651    0.0000 C   0  0  0  0  0  0  0  0  0  0  0  0
    3.0000    3.4641    0.0000 O   0  0  0  0  0  0  0  0  0  0  0  0
    3.0000    0.8660    0.0000 C   0  0  0  0  0  0  0  0  0  0  0  0
    1.5000    0.8660    0.0000 O   0  0  0  0  0  0  0  0  0  0  0  0
    0.7500   -0.4330    0.0000 C   0  0  0  0  0  0  0  0  0  0  0  0
   -3.7500    2.1651    0.0000 C   0  0  0  0  0  0  0  0  0  0  0  0
  1  2  1  0
  2  3  2  0
  2 27  1  0
  3  4  1  0
  4  5  1  0
  4  6  2  0
  6  7  1  0
  7  8  1  0
  7 27  2  0
  8  9  1  0
  9 10  2  0
  9 26  1  0
 10 11  1  0
 10 12  1  0
 12 13  2  0
 13 14  1  0
 13 15  1  0
 15 16  1  0
 15 26  2  0
 16 17  1  0
 17 18  2  0
 17 24  1  0
 18 19  1  0
 19 20  1  0
 19 21  2  0
 21 22  1  0
 22 23  1  0
 22 24  2  0
 24 25  1  0
 25 26  1  0
M  END
>  <s_m_entry_id>  (331) 
717

>  <s_m_entry_name>  (331) 
3C-like_protease_GHDDI_ligprep.336

>  <s_m_Source_Path>  (331) 
/home/jgilaber/drug_learning/drug_learning/datasets/SAR1/GHDDI

>  <s_m_Source_File>  (331) 
3C-like_protease_GHDDI_ligprep.sdf

>  <i_m_Source_File_Index>  (331) 
336

>  <s_m_subgroup_title>  (331) 
3C-like_protease_GHDDI_ligprep

>  <s_m_subgroupid>  (331) 
3C-like_protease_GHDDI_ligprep

>  <b_m_subgroup_collapsed>  (331) 
0

$$$$
13815
     RDKit          2D

 32 36  0  0  1  0  0  0  0  0999 V2000
   -3.3509    2.8651    0.0000 O   0  0  0  0  0  0  0  0  0  0  0  0
   -2.1653    1.9463    0.0000 C   0  0  0  0  0  0  0  0  0  0  0  0
   -2.3682    0.4601    0.0000 C   0  0  0  0  0  0  0  0  0  0  0  0
   -3.7567   -0.1073    0.0000 N   0  0  0  0  0  0  0  0  0  0  0  0
   -5.0319    0.6825    0.0000 N   0  0  0  0  0  0  0  0  0  0  0  0
   -6.1772   -0.2862    0.0000 N   0  0  0  0  0  0  0  0  0  0  0  0
   -5.6098   -1.6747    0.0000 C   0  0  0  0  0  0  0  0  0  0  0  0
   -6.2621   -3.0255    0.0000 C   0  0  0  0  0  0  0  0  0  0  0  0
   -5.4184   -4.2657    0.0000 C   0  0  0  0  0  0  0  0  0  0  0  0
   -3.9224   -4.1552    0.0000 C   0  0  0  0  0  0  0  0  0  0  0  0
   -3.2702   -2.8044    0.0000 C   0  0  0  0  0  0  0  0  0  0  0  0
   -4.1139   -1.5642    0.0000 C   0  0  0  0  0  0  0  0  0  0  0  0
   -0.7767    2.5137    0.0000 N   0  0  0  0  0  0  0  0  0  0  0  0
   -0.5738    3.9999    0.0000 C   0  0  0  0  0  0  0  0  0  0  0  0
    0.8147    4.5673    0.0000 C   0  0  0  0  0  0  0  0  0  0  0  0
    1.1719    6.0241    0.0000 C   0  0  0  0  0  0  0  0  0  0  0  0
    2.6678    6.1347    0.0000 C   0  0  0  0  0  0  0  0  0  0  0  0
    3.2352    4.7461    0.0000 S   0  0  0  0  0  0  0  0  0  0  0  0
    2.0899    3.7774    0.0000 C   0  0  0  0  0  0  0  0  0  0  0  0
    0.4089    1.5948    0.0000 C   0  0  0  0  0  0  0  0  0  0  0  0
    0.2060    0.1086    0.0000 C   0  0  0  0  0  0  0  0  0  0  0  0
    1.3916   -0.8102    0.0000 C   0  0  0  0  0  0  0  0  0  0  0  0
    2.7802   -0.2428    0.0000 C   0  0  0  0  0  0  0  0  0  0  0  0
    3.9658   -1.1616    0.0000 N   0  0  0  0  0  0  0  0  0  0  0  0
    3.7629   -2.6478    0.0000 C   0  0  0  0  0  0  0  0  0  0  0  0
    2.3744   -3.2152    0.0000 O   0  0  0  0  0  0  0  0  0  0  0  0
    4.9486   -3.5667    0.0000 C   0  0  0  0  0  0  0  0  0  0  0  0
    5.1373   -5.0548    0.0000 C   0  0  0  0  0  0  0  0  0  0  0  0
    6.6253   -4.8661    0.0000 C   0  0  0  0  0  0  0  0  0  0  0  0
    6.4367   -3.3780    0.0000 C   0  0  0  0  0  0  0  0  0  0  0  0
    2.9831    1.2434    0.0000 C   0  0  0  0  0  0  0  0  0  0  0  0
    1.7975    2.1622    0.0000 C   0  0  0  0  0  0  0  0  0  0  0  0
  1  2  2  0
  2  3  1  0
  2 13  1  0
  3  4  1  0
  4  5  1  0
  4 12  1  0
  5  6  2  0
  6  7  1  0
  7  8  1  0
  7 12  2  0
  8  9  2  0
  9 10  1  0
 10 11  2  0
 11 12  1  0
 13 14  1  0
 13 20  1  0
 14 15  1  0
 15 16  1  0
 15 19  2  0
 16 17  2  0
 17 18  1  0
 18 19  1  0
 20 21  2  0
 20 32  1  0
 21 22  1  0
 22 23  2  0
 23 24  1  0
 23 31  1  0
 24 25  1  0
 25 26  2  0
 25 27  1  0
 27 28  1  0
 27 30  1  0
 28 29  1  0
 29 30  1  0
 31 32  2  0
M  END
>  <s_m_entry_id>  (332) 
718

>  <s_m_entry_name>  (332) 
3C-like_protease_GHDDI_ligprep.337

>  <s_m_Source_Path>  (332) 
/home/jgilaber/drug_learning/drug_learning/datasets/SAR1/GHDDI

>  <s_m_Source_File>  (332) 
3C-like_protease_GHDDI_ligprep.sdf

>  <i_m_Source_File_Index>  (332) 
337

>  <s_m_subgroup_title>  (332) 
3C-like_protease_GHDDI_ligprep

>  <s_m_subgroupid>  (332) 
3C-like_protease_GHDDI_ligprep

>  <b_m_subgroup_collapsed>  (332) 
0

$$$$
13816
     RDKit          2D

 40 45  0  0  1  0  0  0  0  0999 V2000
    7.1752   -5.6395    0.0000 O   0  0  0  0  0  0  0  0  0  0  0  0
    6.6031   -4.2529    0.0000 C   0  0  0  0  0  0  0  0  0  0  0  0
    5.1162   -4.0551    0.0000 C   0  0  0  0  0  0  0  0  0  0  0  0
    4.5440   -2.6685    0.0000 C   0  0  0  0  0  0  0  0  0  0  0  0
    5.4588   -1.4797    0.0000 C   0  0  0  0  0  0  0  0  0  0  0  0
    6.9457   -1.6775    0.0000 C   0  0  0  0  0  0  0  0  0  0  0  0
    7.5178   -3.0641    0.0000 C   0  0  0  0  0  0  0  0  0  0  0  0
    4.8866   -0.0931    0.0000 C   0  0  0  0  0  0  0  0  0  0  0  0
    5.8014    1.0957    0.0000 C   0  0  0  0  0  0  0  0  0  0  0  0
    5.2293    2.4823    0.0000 C   0  0  0  0  0  0  0  0  0  0  0  0
    6.1440    3.6710    0.0000 O   0  0  0  0  0  0  0  0  0  0  0  0
    3.7424    2.6801    0.0000 C   0  0  0  0  0  0  0  0  0  0  0  0
    3.1702    4.0667    0.0000 C   0  0  0  0  0  0  0  0  0  0  0  0
    4.0850    5.2555    0.0000 O   0  0  0  0  0  0  0  0  0  0  0  0
    1.6833    4.2645    0.0000 C   0  0  0  0  0  0  0  0  0  0  0  0
    0.7686    3.0757    0.0000 C   0  0  0  0  0  0  0  0  0  0  0  0
   -0.7183    3.2735    0.0000 O   0  0  0  0  0  0  0  0  0  0  0  0
    1.3407    1.6891    0.0000 C   0  0  0  0  0  0  0  0  0  0  0  0
    2.8276    1.4913    0.0000 C   0  0  0  0  0  0  0  0  0  0  0  0
    3.3997    0.1047    0.0000 O   0  0  0  0  0  0  0  0  0  0  0  0
    0.4259    0.5003    0.0000 C   0  0  0  0  0  0  0  0  0  0  0  0
   -1.0610    0.6981    0.0000 C   0  0  0  0  0  0  0  0  0  0  0  0
   -1.9757   -0.4907    0.0000 C   0  0  0  0  0  0  0  0  0  0  0  0
   -1.4036   -1.8773    0.0000 C   0  0  0  0  0  0  0  0  0  0  0  0
    0.0833   -2.0751    0.0000 C   0  0  0  0  0  0  0  0  0  0  0  0
    0.9981   -0.8863    0.0000 C   0  0  0  0  0  0  0  0  0  0  0  0
    2.4850   -1.0841    0.0000 O   0  0  0  0  0  0  0  0  0  0  0  0
   -3.4626   -0.2929    0.0000 C   0  0  0  0  0  0  0  0  0  0  0  0
   -4.0348    1.0937    0.0000 C   0  0  0  0  0  0  0  0  0  0  0  0
   -5.5217    1.2915    0.0000 C   0  0  0  0  0  0  0  0  0  0  0  0
   -6.0938    2.6781    0.0000 O   0  0  0  0  0  0  0  0  0  0  0  0
   -6.4364    0.1027    0.0000 C   0  0  0  0  0  0  0  0  0  0  0  0
   -7.9233    0.3005    0.0000 C   0  0  0  0  0  0  0  0  0  0  0  0
   -8.4955    1.6871    0.0000 O   0  0  0  0  0  0  0  0  0  0  0  0
   -8.8381   -0.8883    0.0000 C   0  0  0  0  0  0  0  0  0  0  0  0
   -8.2659   -2.2749    0.0000 C   0  0  0  0  0  0  0  0  0  0  0  0
   -9.1807   -3.4636    0.0000 O   0  0  0  0  0  0  0  0  0  0  0  0
   -6.7790   -2.4727    0.0000 C   0  0  0  0  0  0  0  0  0  0  0  0
   -5.8643   -1.2839    0.0000 C   0  0  0  0  0  0  0  0  0  0  0  0
   -4.3774   -1.4817    0.0000 O   0  0  0  0  0  0  0  0  0  0  0  0
  1  2  1  0
  2  3  2  0
  2  7  1  0
  3  4  1  0
  4  5  2  0
  5  6  1  0
  5  8  1  0
  6  7  2  0
  8  9  2  0
  8 20  1  0
  9 10  1  0
 10 11  2  0
 10 12  1  0
 12 13  2  0
 12 19  1  0
 13 14  1  0
 13 15  1  0
 15 16  2  0
 16 17  1  0
 16 18  1  0
 18 19  2  0
 18 21  1  0
 19 20  1  0
 21 22  2  0
 21 26  1  0
 22 23  1  0
 23 24  2  0
 23 28  1  0
 24 25  1  0
 25 26  2  0
 26 27  1  0
 28 29  2  0
 28 40  1  0
 29 30  1  0
 30 31  2  0
 30 32  1  0
 32 33  2  0
 32 39  1  0
 33 34  1  0
 33 35  1  0
 35 36  2  0
 36 37  1  0
 36 38  1  0
 38 39  2  0
 39 40  1  0
M  END
>  <s_m_entry_id>  (333) 
720

>  <s_m_entry_name>  (333) 
3C-like_protease_GHDDI_ligprep.339

>  <s_m_Source_Path>  (333) 
/home/jgilaber/drug_learning/drug_learning/datasets/SAR1/GHDDI

>  <s_m_Source_File>  (333) 
3C-like_protease_GHDDI_ligprep.sdf

>  <i_m_Source_File_Index>  (333) 
339

>  <s_m_subgroup_title>  (333) 
3C-like_protease_GHDDI_ligprep

>  <s_m_subgroupid>  (333) 
3C-like_protease_GHDDI_ligprep

>  <b_m_subgroup_collapsed>  (333) 
0

$$$$
13817
     RDKit          2D

 42 48  0  0  1  0  0  0  0  0999 V2000
   -5.7819    5.2362    0.0000 C   0  0  0  0  0  0  0  0  0  0  0  0
   -4.4638    4.5203    0.0000 O   0  0  0  0  0  0  0  0  0  0  0  0
   -4.4247    3.0208    0.0000 C   0  0  0  0  0  0  0  0  0  0  0  0
   -3.1066    2.3049    0.0000 C   0  0  0  0  0  0  0  0  0  0  0  0
   -3.0675    0.8054    0.0000 C   0  0  0  0  0  0  0  0  0  0  0  0
   -4.3466    0.0218    0.0000 C   0  0  0  0  0  0  0  0  0  0  0  0
   -5.6647    0.7378    0.0000 C   0  0  0  0  0  0  0  0  0  0  0  0
   -6.9438   -0.0458    0.0000 O   0  0  0  0  0  0  0  0  0  0  0  0
   -8.2619    0.6701    0.0000 C   0  0  0  0  0  0  0  0  0  0  0  0
   -5.7038    2.2373    0.0000 C   0  0  0  0  0  0  0  0  0  0  0  0
   -7.0219    2.9532    0.0000 O   0  0  0  0  0  0  0  0  0  0  0  0
   -1.7494    0.0895    0.0000 C   0  0  0  0  0  0  0  0  0  0  0  0
   -0.4704    0.8730    0.0000 C   0  0  0  0  0  0  0  0  0  0  0  0
    0.8478    0.1571    0.0000 C   0  0  0  0  0  0  0  0  0  0  0  0
    1.9360    1.1894    0.0000 C   0  0  0  0  0  0  0  0  0  0  0  0
    1.2904    2.5434    0.0000 O   0  0  0  0  0  0  0  0  0  0  0  0
   -0.1968    2.3478    0.0000 C   0  0  0  0  0  0  0  0  0  0  0  0
   -1.2291    3.4361    0.0000 O   0  0  0  0  0  0  0  0  0  0  0  0
    0.8868   -1.3424    0.0000 C   0  0  0  0  0  0  0  0  0  0  0  0
    2.2049   -2.0584    0.0000 C   0  0  0  0  0  0  0  0  0  0  0  0
    3.4840   -1.2748    0.0000 C   0  0  0  0  0  0  0  0  0  0  0  0
    3.4450    0.2247    0.0000 O   0  0  0  0  0  0  0  0  0  0  0  0
    4.7240    1.0083    0.0000 C   0  0  0  0  0  0  0  0  0  0  0  0
    4.6850    2.5077    0.0000 C   0  0  0  0  0  0  0  0  0  0  0  0
    5.9641    3.2913    0.0000 O   0  0  0  0  0  0  0  0  0  0  0  0
    7.2822    2.5754    0.0000 C   0  0  0  0  0  0  0  0  0  0  0  0
    8.5613    3.3589    0.0000 C   0  0  0  0  0  0  0  0  0  0  0  0
    7.3212    1.0759    0.0000 O   0  0  0  0  0  0  0  0  0  0  0  0
    6.0422    0.2923    0.0000 C   0  0  0  0  0  0  0  0  0  0  0  0
    6.0812   -1.2072    0.0000 C   0  0  0  0  0  0  0  0  0  0  0  0
    7.3993   -1.9231    0.0000 O   0  0  0  0  0  0  0  0  0  0  0  0
    4.8021   -1.9907    0.0000 C   0  0  0  0  0  0  0  0  0  0  0  0
    4.8412   -3.4902    0.0000 O   0  0  0  0  0  0  0  0  0  0  0  0
   -0.3923   -2.1260    0.0000 C   0  0  0  0  0  0  0  0  0  0  0  0
   -0.3532   -3.6255    0.0000 C   0  0  0  0  0  0  0  0  0  0  0  0
   -1.6323   -4.4090    0.0000 C   0  0  0  0  0  0  0  0  0  0  0  0
   -1.9059   -5.8839    0.0000 O   0  0  0  0  0  0  0  0  0  0  0  0
   -3.3931   -6.0794    0.0000 C   0  0  0  0  0  0  0  0  0  0  0  0
   -4.0386   -4.7255    0.0000 O   0  0  0  0  0  0  0  0  0  0  0  0
   -2.9504   -3.6931    0.0000 C   0  0  0  0  0  0  0  0  0  0  0  0
   -2.9895   -2.1936    0.0000 C   0  0  0  0  0  0  0  0  0  0  0  0
   -1.7104   -1.4100    0.0000 C   0  0  0  0  0  0  0  0  0  0  0  0
  1  2  1  0
  2  3  1  0
  3  4  2  0
  3 10  1  0
  4  5  1  0
  5  6  2  0
  5 12  1  0
  6  7  1  0
  7  8  1  0
  7 10  2  0
  8  9  1  0
 10 11  1  0
 12 13  1  0
 12 42  1  0
 13 14  1  0
 13 17  1  0
 14 15  1  0
 14 19  1  0
 15 16  1  0
 16 17  1  0
 17 18  2  0
 19 20  1  0
 19 34  1  0
 20 21  1  0
 21 22  1  0
 21 32  1  0
 22 23  1  0
 23 24  1  0
 23 29  1  0
 24 25  1  0
 25 26  1  0
 26 27  1  0
 26 28  1  0
 28 29  1  0
 29 30  1  0
 30 31  1  0
 30 32  1  0
 32 33  1  0
 34 35  1  0
 34 42  2  0
 35 36  2  0
 36 37  1  0
 36 40  1  0
 37 38  1  0
 38 39  1  0
 39 40  1  0
 40 41  2  0
 41 42  1  0
M  END
>  <s_m_entry_id>  (334) 
721

>  <s_m_entry_name>  (334) 
3C-like_protease_GHDDI_ligprep.340

>  <s_m_Source_Path>  (334) 
/home/jgilaber/drug_learning/drug_learning/datasets/SAR1/GHDDI

>  <s_m_Source_File>  (334) 
3C-like_protease_GHDDI_ligprep.sdf

>  <i_m_Source_File_Index>  (334) 
340

>  <s_m_subgroup_title>  (334) 
3C-like_protease_GHDDI_ligprep

>  <s_m_subgroupid>  (334) 
3C-like_protease_GHDDI_ligprep

>  <b_m_subgroup_collapsed>  (334) 
0

$$$$
13818
     RDKit          2D

 22 24  0  0  1  0  0  0  0  0999 V2000
   -6.7653    1.9303    0.0000 C   0  0  0  0  0  0  0  0  0  0  0  0
   -6.1849    0.5472    0.0000 O   0  0  0  0  0  0  0  0  0  0  0  0
   -4.6968    0.3583    0.0000 C   0  0  0  0  0  0  0  0  0  0  0  0
   -3.7892    1.5525    0.0000 C   0  0  0  0  0  0  0  0  0  0  0  0
   -2.3011    1.3635    0.0000 C   0  0  0  0  0  0  0  0  0  0  0  0
   -1.7207   -0.0196    0.0000 C   0  0  0  0  0  0  0  0  0  0  0  0
   -2.6284   -1.2138    0.0000 C   0  0  0  0  0  0  0  0  0  0  0  0
   -4.1164   -1.0249    0.0000 C   0  0  0  0  0  0  0  0  0  0  0  0
   -5.0241   -2.2191    0.0000 O   0  0  0  0  0  0  0  0  0  0  0  0
   -0.2327   -0.2085    0.0000 C   0  0  0  0  0  0  0  0  0  0  0  0
    0.3477   -1.5917    0.0000 C   0  0  0  0  0  0  0  0  0  0  0  0
    1.8358   -1.7806    0.0000 C   0  0  0  0  0  0  0  0  0  0  0  0
    2.4162   -3.1638    0.0000 O   0  0  0  0  0  0  0  0  0  0  0  0
    2.7434   -0.5864    0.0000 C   0  0  0  0  0  0  0  0  0  0  0  0
    4.2315   -0.7753    0.0000 C   0  0  0  0  0  0  0  0  0  0  0  0
    4.8119   -2.1585    0.0000 O   0  0  0  0  0  0  0  0  0  0  0  0
    5.1391    0.4189    0.0000 C   0  0  0  0  0  0  0  0  0  0  0  0
    4.5587    1.8020    0.0000 C   0  0  0  0  0  0  0  0  0  0  0  0
    5.4664    2.9963    0.0000 O   0  0  0  0  0  0  0  0  0  0  0  0
    3.0707    1.9910    0.0000 C   0  0  0  0  0  0  0  0  0  0  0  0
    2.1630    0.7967    0.0000 C   0  0  0  0  0  0  0  0  0  0  0  0
    0.6750    0.9857    0.0000 O   0  0  0  0  0  0  0  0  0  0  0  0
  1  2  1  0
  2  3  1  0
  3  4  2  0
  3  8  1  0
  4  5  1  0
  5  6  2  0
  6  7  1  0
  6 10  1  0
  7  8  2  0
  8  9  1  0
 10 11  1  0
 10 22  1  0
 11 12  1  0
 12 13  2  0
 12 14  1  0
 14 15  2  0
 14 21  1  0
 15 16  1  0
 15 17  1  0
 17 18  2  0
 18 19  1  0
 18 20  1  0
 20 21  2  0
 21 22  1  0
M  END
>  <s_m_entry_id>  (335) 
753

>  <s_m_entry_name>  (335) 
3C-like_protease_GHDDI_ligprep.372

>  <s_m_Source_Path>  (335) 
/home/jgilaber/drug_learning/drug_learning/datasets/SAR1/GHDDI

>  <s_m_Source_File>  (335) 
3C-like_protease_GHDDI_ligprep.sdf

>  <i_m_Source_File_Index>  (335) 
372

>  <s_m_subgroup_title>  (335) 
3C-like_protease_GHDDI_ligprep

>  <s_m_subgroupid>  (335) 
3C-like_protease_GHDDI_ligprep

>  <b_m_subgroup_collapsed>  (335) 
0

$$$$
13821
     RDKit          2D

 26 27  0  0  1  0  0  0  0  0999 V2000
   -9.9055    0.5641    0.0000 N   0  0  0  0  0  0  0  0  0  0  0  0
   -8.8293   -0.4807    0.0000 C   0  0  0  0  0  0  0  0  0  0  0  0
   -9.1961   -1.9352    0.0000 N   0  0  0  0  0  0  0  0  0  0  0  0
   -7.3863   -0.0711    0.0000 C   0  0  0  0  0  0  0  0  0  0  0  0
   -7.0195    1.3833    0.0000 C   0  0  0  0  0  0  0  0  0  0  0  0
   -5.5765    1.7929    0.0000 C   0  0  0  0  0  0  0  0  0  0  0  0
   -4.5003    0.7481    0.0000 C   0  0  0  0  0  0  0  0  0  0  0  0
   -3.0573    1.1577    0.0000 O   0  0  0  0  0  0  0  0  0  0  0  0
   -1.9811    0.1128    0.0000 C   0  0  0  0  0  0  0  0  0  0  0  0
   -0.5381    0.5224    0.0000 C   0  0  0  0  0  0  0  0  0  0  0  0
   -0.1713    1.9769    0.0000 O   0  0  0  0  0  0  0  0  0  0  0  0
    0.5381   -0.5224    0.0000 C   0  0  0  0  0  0  0  0  0  0  0  0
    0.1713   -1.9769    0.0000 O   0  0  0  0  0  0  0  0  0  0  0  0
    1.9811   -0.1128    0.0000 C   0  0  0  0  0  0  0  0  0  0  0  0
    3.0573   -1.1577    0.0000 O   0  0  0  0  0  0  0  0  0  0  0  0
    4.5003   -0.7481    0.0000 C   0  0  0  0  0  0  0  0  0  0  0  0
    5.5765   -1.7929    0.0000 C   0  0  0  0  0  0  0  0  0  0  0  0
    7.0195   -1.3833    0.0000 C   0  0  0  0  0  0  0  0  0  0  0  0
    7.3863    0.0711    0.0000 C   0  0  0  0  0  0  0  0  0  0  0  0
    6.3101    1.1160    0.0000 C   0  0  0  0  0  0  0  0  0  0  0  0
    4.8671    0.7064    0.0000 C   0  0  0  0  0  0  0  0  0  0  0  0
    8.8293    0.4807    0.0000 C   0  0  0  0  0  0  0  0  0  0  0  0
    9.1961    1.9352    0.0000 N   0  0  0  0  0  0  0  0  0  0  0  0
    9.9055   -0.5641    0.0000 N   0  0  0  0  0  0  0  0  0  0  0  0
   -4.8671   -0.7064    0.0000 C   0  0  0  0  0  0  0  0  0  0  0  0
   -6.3101   -1.1160    0.0000 C   0  0  0  0  0  0  0  0  0  0  0  0
  1  2  1  0
  2  3  2  0
  2  4  1  0
  4  5  2  0
  4 26  1  0
  5  6  1  0
  6  7  2  0
  7  8  1  0
  7 25  1  0
  8  9  1  0
  9 10  1  0
 10 11  1  0
 10 12  1  0
 12 13  1  0
 12 14  1  0
 14 15  1  0
 15 16  1  0
 16 17  2  0
 16 21  1  0
 17 18  1  0
 18 19  2  0
 19 20  1  0
 19 22  1  0
 20 21  2  0
 22 23  2  0
 22 24  1  0
 25 26  2  0
M  CHG  2   3   1  23   1
M  END
>  <s_m_entry_id>  (336) 
758

>  <s_m_entry_name>  (336) 
3C-like_protease_GHDDI_ligprep.377

>  <s_m_Source_Path>  (336) 
/home/jgilaber/drug_learning/drug_learning/datasets/SAR1/GHDDI

>  <s_m_Source_File>  (336) 
3C-like_protease_GHDDI_ligprep.sdf

>  <i_m_Source_File_Index>  (336) 
377

>  <s_m_subgroup_title>  (336) 
3C-like_protease_GHDDI_ligprep

>  <s_m_subgroupid>  (336) 
3C-like_protease_GHDDI_ligprep

>  <b_m_subgroup_collapsed>  (336) 
0

$$$$
13822
     RDKit          2D

 32 35  0  0  1  0  0  0  0  0999 V2000
    6.8837   -4.7715    0.0000 F   0  0  0  0  0  0  0  0  0  0  0  0
    5.6878   -3.8661    0.0000 C   0  0  0  0  0  0  0  0  0  0  0  0
    4.3057   -4.4492    0.0000 C   0  0  0  0  0  0  0  0  0  0  0  0
    3.1098   -3.5439    0.0000 C   0  0  0  0  0  0  0  0  0  0  0  0
    3.2958   -2.0555    0.0000 C   0  0  0  0  0  0  0  0  0  0  0  0
    2.0998   -1.1501    0.0000 N   0  0  0  0  0  0  0  0  0  0  0  0
    2.2859    0.3383    0.0000 C   0  0  0  0  0  0  0  0  0  0  0  0
    3.6679    0.9214    0.0000 O   0  0  0  0  0  0  0  0  0  0  0  0
    1.0899    1.2436    0.0000 N   0  0  0  0  0  0  0  0  0  0  0  0
    1.2760    2.7320    0.0000 C   0  0  0  0  0  0  0  0  0  0  0  0
    0.0800    3.6374    0.0000 C   0  0  0  0  0  0  0  0  0  0  0  0
    0.2661    5.1258    0.0000 N   0  0  0  0  0  0  0  0  0  0  0  0
   -0.8287    6.1512    0.0000 C   0  0  0  0  0  0  0  0  0  0  0  0
   -0.1918    7.5093    0.0000 C   0  0  0  0  0  0  0  0  0  0  0  0
    1.2966    7.3232    0.0000 C   0  0  0  0  0  0  0  0  0  0  0  0
    1.5796    5.8501    0.0000 C   0  0  0  0  0  0  0  0  0  0  0  0
   -0.2921    0.6605    0.0000 C   0  0  0  0  0  0  0  0  0  0  0  0
   -1.4881    1.5659    0.0000 C   0  0  0  0  0  0  0  0  0  0  0  0
   -2.8701    0.9828    0.0000 C   0  0  0  0  0  0  0  0  0  0  0  0
   -3.0562   -0.5056    0.0000 C   0  0  0  0  0  0  0  0  0  0  0  0
   -1.8602   -1.4109    0.0000 C   0  0  0  0  0  0  0  0  0  0  0  0
   -0.4782   -0.8279    0.0000 C   0  0  0  0  0  0  0  0  0  0  0  0
   -4.4382   -1.0887    0.0000 C   0  0  0  0  0  0  0  0  0  0  0  0
   -4.7788   -2.5495    0.0000 O   0  0  0  0  0  0  0  0  0  0  0  0
   -6.2734   -2.6770    0.0000 C   0  0  0  0  0  0  0  0  0  0  0  0
   -7.0488   -3.9610    0.0000 C   0  0  0  0  0  0  0  0  0  0  0  0
   -8.5485   -3.9316    0.0000 O   0  0  0  0  0  0  0  0  0  0  0  0
   -6.8565   -1.2949    0.0000 C   0  0  0  0  0  0  0  0  0  0  0  0
   -5.7223   -0.3133    0.0000 C   0  0  0  0  0  0  0  0  0  0  0  0
    4.6778   -1.4724    0.0000 C   0  0  0  0  0  0  0  0  0  0  0  0
    5.8738   -2.3777    0.0000 C   0  0  0  0  0  0  0  0  0  0  0  0
    7.2559   -1.7947    0.0000 Cl  0  0  0  0  0  0  0  0  0  0  0  0
  1  2  1  0
  2  3  2  0
  2 31  1  0
  3  4  1  0
  4  5  2  0
  5  6  1  0
  5 30  1  0
  6  7  1  0
  7  8  2  0
  7  9  1  0
  9 10  1  0
  9 17  1  0
 10 11  1  0
 11 12  1  0
 12 13  1  0
 12 16  1  0
 13 14  1  0
 14 15  1  0
 15 16  1  0
 17 18  1  0
 17 22  1  0
 18 19  1  0
 19 20  1  0
 20 21  2  0
 20 23  1  0
 21 22  1  0
 23 24  1  0
 23 29  2  0
 24 25  1  0
 25 26  1  0
 25 28  2  0
 26 27  2  0
 28 29  1  0
 30 31  2  0
 31 32  1  0
M  CHG  1  12   1
M  END
>  <s_m_entry_id>  (337) 
759

>  <s_m_entry_name>  (337) 
3C-like_protease_GHDDI_ligprep.378

>  <s_m_Source_Path>  (337) 
/home/jgilaber/drug_learning/drug_learning/datasets/SAR1/GHDDI

>  <s_m_Source_File>  (337) 
3C-like_protease_GHDDI_ligprep.sdf

>  <i_m_Source_File_Index>  (337) 
378

>  <s_m_subgroup_title>  (337) 
3C-like_protease_GHDDI_ligprep

>  <s_m_subgroupid>  (337) 
3C-like_protease_GHDDI_ligprep

>  <b_m_subgroup_collapsed>  (337) 
0

$$$$
13823
     RDKit          2D

 32 35  0  0  1  0  0  0  0  0999 V2000
   -6.0527    1.7167    0.0000 C   0  0  0  0  0  0  0  0  0  0  0  0
   -5.5791    0.2935    0.0000 C   0  0  0  0  0  0  0  0  0  0  0  0
   -5.1055   -1.1298    0.0000 C   0  0  0  0  0  0  0  0  0  0  0  0
   -7.0024   -0.1801    0.0000 C   0  0  0  0  0  0  0  0  0  0  0  0
   -4.1558    0.7671    0.0000 N   0  0  0  0  0  0  0  0  0  0  0  0
   -3.0340   -0.2287    0.0000 C   0  0  0  0  0  0  0  0  0  0  0  0
   -3.3355   -1.6981    0.0000 O   0  0  0  0  0  0  0  0  0  0  0  0
   -1.6108    0.2449    0.0000 C   0  0  0  0  0  0  0  0  0  0  0  0
   -0.4890   -0.7508    0.0000 N   0  0  0  0  0  0  0  0  0  0  0  0
   -0.7904   -2.2202    0.0000 C   0  0  0  0  0  0  0  0  0  0  0  0
   -2.2137   -2.6939    0.0000 O   0  0  0  0  0  0  0  0  0  0  0  0
    0.3314   -3.2160    0.0000 C   0  0  0  0  0  0  0  0  0  0  0  0
    1.7963   -2.8938    0.0000 C   0  0  0  0  0  0  0  0  0  0  0  0
    2.5555   -4.1875    0.0000 N   0  0  0  0  0  0  0  0  0  0  0  0
    1.5598   -5.3093    0.0000 C   0  0  0  0  0  0  0  0  0  0  0  0
    0.1852   -4.7089    0.0000 N   0  0  0  0  0  0  0  0  0  0  0  0
    0.9343   -0.2772    0.0000 C   0  0  0  0  0  0  0  0  0  0  0  0
    2.0561   -1.2730    0.0000 C   0  0  0  0  0  0  0  0  0  0  0  0
    3.4794   -0.7994    0.0000 C   0  0  0  0  0  0  0  0  0  0  0  0
    3.7808    0.6700    0.0000 C   0  0  0  0  0  0  0  0  0  0  0  0
    2.6590    1.6658    0.0000 C   0  0  0  0  0  0  0  0  0  0  0  0
    1.2358    1.1922    0.0000 C   0  0  0  0  0  0  0  0  0  0  0  0
    5.2041    1.1436    0.0000 C   0  0  0  0  0  0  0  0  0  0  0  0
    6.5454    0.4721    0.0000 C   0  0  0  0  0  0  0  0  0  0  0  0
    7.2169    1.8134    0.0000 C   0  0  0  0  0  0  0  0  0  0  0  0
    5.8756    2.4849    0.0000 C   0  0  0  0  0  0  0  0  0  0  0  0
   -1.3093    1.7143    0.0000 C   0  0  0  0  0  0  0  0  0  0  0  0
   -2.4311    2.7101    0.0000 C   0  0  0  0  0  0  0  0  0  0  0  0
   -2.1296    4.1795    0.0000 C   0  0  0  0  0  0  0  0  0  0  0  0
   -0.7063    4.6531    0.0000 C   0  0  0  0  0  0  0  0  0  0  0  0
    0.4154    3.6573    0.0000 N   0  0  0  0  0  0  0  0  0  0  0  0
    0.1140    2.1879    0.0000 C   0  0  0  0  0  0  0  0  0  0  0  0
  1  2  1  0
  2  3  1  0
  2  4  1  0
  2  5  1  0
  5  6  1  0
  6  7  2  0
  6  8  1  0
  8  9  1  0
  8 27  1  0
  9 10  1  0
  9 17  1  0
 10 11  2  0
 10 12  1  0
 12 13  2  0
 12 16  1  0
 13 14  1  0
 14 15  2  0
 15 16  1  0
 17 18  2  0
 17 22  1  0
 18 19  1  0
 19 20  2  0
 20 21  1  0
 20 23  1  0
 21 22  2  0
 23 24  1  0
 23 26  1  0
 24 25  1  0
 25 26  1  0
 27 28  2  0
 27 32  1  0
 28 29  1  0
 29 30  2  0
 30 31  1  0
 31 32  2  0
M  END
>  <s_m_entry_id>  (338) 
765

>  <s_m_entry_name>  (338) 
3C-like_protease_GHDDI_ligprep.384

>  <s_m_Source_Path>  (338) 
/home/jgilaber/drug_learning/drug_learning/datasets/SAR1/GHDDI

>  <s_m_Source_File>  (338) 
3C-like_protease_GHDDI_ligprep.sdf

>  <i_m_Source_File_Index>  (338) 
384

>  <s_m_subgroup_title>  (338) 
3C-like_protease_GHDDI_ligprep

>  <s_m_subgroupid>  (338) 
3C-like_protease_GHDDI_ligprep

>  <b_m_subgroup_collapsed>  (338) 
0

$$$$
13824
     RDKit          2D

 36 40  0  0  1  0  0  0  0  0999 V2000
  -10.1083    0.5478    0.0000 C   0  0  0  0  0  0  0  0  0  0  0  0
   -9.2227   -0.6629    0.0000 C   0  0  0  0  0  0  0  0  0  0  0  0
   -9.8285   -2.0352    0.0000 C   0  0  0  0  0  0  0  0  0  0  0  0
   -7.7315   -0.5014    0.0000 C   0  0  0  0  0  0  0  0  0  0  0  0
   -7.1257    0.8709    0.0000 C   0  0  0  0  0  0  0  0  0  0  0  0
   -5.6345    1.0324    0.0000 C   0  0  0  0  0  0  0  0  0  0  0  0
   -4.7489   -0.1783    0.0000 C   0  0  0  0  0  0  0  0  0  0  0  0
   -5.3546   -1.5505    0.0000 C   0  0  0  0  0  0  0  0  0  0  0  0
   -6.8459   -1.7121    0.0000 C   0  0  0  0  0  0  0  0  0  0  0  0
   -3.2576   -0.0167    0.0000 N   0  0  0  0  0  0  0  0  0  0  0  0
   -2.5118    1.2847    0.0000 N   0  0  0  0  0  0  0  0  0  0  0  0
   -1.0436    0.9775    0.0000 C   0  0  0  0  0  0  0  0  0  0  0  0
   -0.8820   -0.5138    0.0000 C   0  0  0  0  0  0  0  0  0  0  0  0
    0.4194   -1.2596    0.0000 C   0  0  0  0  0  0  0  0  0  0  0  0
    1.7160   -0.5055    0.0000 C   0  0  0  0  0  0  0  0  0  0  0  0
    3.0883   -1.1112    0.0000 O   0  0  0  0  0  0  0  0  0  0  0  0
    4.0884    0.0067    0.0000 C   0  0  0  0  0  0  0  0  0  0  0  0
    3.3343    1.3034    0.0000 C   0  0  0  0  0  0  0  0  0  0  0  0
    1.8681    0.9868    0.0000 C   0  0  0  0  0  0  0  0  0  0  0  0
    5.5807   -0.1453    0.0000 C   0  0  0  0  0  0  0  0  0  0  0  0
    6.4585    1.0710    0.0000 C   0  0  0  0  0  0  0  0  0  0  0  0
    7.9508    0.9190    0.0000 C   0  0  0  0  0  0  0  0  0  0  0  0
    8.5653   -0.4494    0.0000 C   0  0  0  0  0  0  0  0  0  0  0  0
    7.6875   -1.6657    0.0000 C   0  0  0  0  0  0  0  0  0  0  0  0
    6.1952   -1.5137    0.0000 C   0  0  0  0  0  0  0  0  0  0  0  0
    5.3174   -2.7300    0.0000 C   0  0  0  0  0  0  0  0  0  0  0  0
    3.8251   -2.5780    0.0000 O   0  0  0  0  0  0  0  0  0  0  0  0
    5.9319   -4.0984    0.0000 O   0  0  0  0  0  0  0  0  0  0  0  0
   -2.2504   -1.1282    0.0000 C   0  0  0  0  0  0  0  0  0  0  0  0
   -2.5576   -2.5964    0.0000 O   0  0  0  0  0  0  0  0  0  0  0  0
    0.0679    1.9848    0.0000 C   0  0  0  0  0  0  0  0  0  0  0  0
   -0.2486    3.4510    0.0000 C   0  0  0  0  0  0  0  0  0  0  0  0
    0.8629    4.4582    0.0000 C   0  0  0  0  0  0  0  0  0  0  0  0
    2.2910    3.9993    0.0000 C   0  0  0  0  0  0  0  0  0  0  0  0
    2.6075    2.5330    0.0000 C   0  0  0  0  0  0  0  0  0  0  0  0
    1.4960    1.5258    0.0000 C   0  0  0  0  0  0  0  0  0  0  0  0
  1  2  1  0
  2  3  1  0
  2  4  1  0
  4  5  2  0
  4  9  1  0
  5  6  1  0
  6  7  2  0
  7  8  1  0
  7 10  1  0
  8  9  2  0
 10 11  1  0
 10 29  1  0
 11 12  2  0
 12 13  1  0
 12 31  1  0
 13 14  2  0
 13 29  1  0
 14 15  1  0
 15 16  1  0
 15 19  2  0
 16 17  1  0
 17 18  2  0
 17 20  1  0
 18 19  1  0
 20 21  2  0
 20 25  1  0
 21 22  1  0
 22 23  2  0
 23 24  1  0
 24 25  2  0
 25 26  1  0
 26 27  2  0
 26 28  1  0
 29 30  2  0
 31 32  2  0
 31 36  1  0
 32 33  1  0
 33 34  2  0
 34 35  1  0
 35 36  2  0
M  CHG  1  28  -1
M  END
>  <s_m_entry_id>  (339) 
770

>  <s_m_entry_name>  (339) 
3C-like_protease_GHDDI_ligprep.389

>  <s_m_Source_Path>  (339) 
/home/jgilaber/drug_learning/drug_learning/datasets/SAR1/GHDDI

>  <s_m_Source_File>  (339) 
3C-like_protease_GHDDI_ligprep.sdf

>  <i_m_Source_File_Index>  (339) 
389

>  <s_m_subgroup_title>  (339) 
3C-like_protease_GHDDI_ligprep

>  <s_m_subgroupid>  (339) 
3C-like_protease_GHDDI_ligprep

>  <b_m_subgroup_collapsed>  (339) 
0

$$$$
13825
     RDKit          2D

 35 39  0  0  1  0  0  0  0  0999 V2000
  -10.3984    0.2143    0.0000 C   0  0  0  0  0  0  0  0  0  0  0  0
   -9.4811   -0.9725    0.0000 O   0  0  0  0  0  0  0  0  0  0  0  0
   -7.9946   -0.7715    0.0000 C   0  0  0  0  0  0  0  0  0  0  0  0
   -7.4255    0.6163    0.0000 C   0  0  0  0  0  0  0  0  0  0  0  0
   -5.9390    0.8173    0.0000 C   0  0  0  0  0  0  0  0  0  0  0  0
   -5.0217   -0.3696    0.0000 C   0  0  0  0  0  0  0  0  0  0  0  0
   -5.5909   -1.7574    0.0000 C   0  0  0  0  0  0  0  0  0  0  0  0
   -7.0773   -1.9584    0.0000 C   0  0  0  0  0  0  0  0  0  0  0  0
   -3.5352   -0.1686    0.0000 N   0  0  0  0  0  0  0  0  0  0  0  0
   -2.8241    1.1522    0.0000 N   0  0  0  0  0  0  0  0  0  0  0  0
   -1.3483    0.8840    0.0000 C   0  0  0  0  0  0  0  0  0  0  0  0
   -1.1473   -0.6025    0.0000 C   0  0  0  0  0  0  0  0  0  0  0  0
    0.1734   -1.3136    0.0000 C   0  0  0  0  0  0  0  0  0  0  0  0
    1.4497   -0.5254    0.0000 C   0  0  0  0  0  0  0  0  0  0  0  0
    2.8375   -1.0946    0.0000 O   0  0  0  0  0  0  0  0  0  0  0  0
    3.8076    0.0494    0.0000 C   0  0  0  0  0  0  0  0  0  0  0  0
    3.0194    1.3256    0.0000 C   0  0  0  0  0  0  0  0  0  0  0  0
    1.5621    0.9704    0.0000 C   0  0  0  0  0  0  0  0  0  0  0  0
    5.3034   -0.0630    0.0000 C   0  0  0  0  0  0  0  0  0  0  0  0
    6.1487    1.1761    0.0000 C   0  0  0  0  0  0  0  0  0  0  0  0
    7.6445    1.0637    0.0000 C   0  0  0  0  0  0  0  0  0  0  0  0
    8.2950   -0.2879    0.0000 C   0  0  0  0  0  0  0  0  0  0  0  0
    7.4497   -1.5271    0.0000 C   0  0  0  0  0  0  0  0  0  0  0  0
    5.9539   -1.4146    0.0000 C   0  0  0  0  0  0  0  0  0  0  0  0
    5.1087   -2.6538    0.0000 C   0  0  0  0  0  0  0  0  0  0  0  0
    3.6129   -2.5413    0.0000 O   0  0  0  0  0  0  0  0  0  0  0  0
    5.7592   -4.0054    0.0000 O   0  0  0  0  0  0  0  0  0  0  0  0
   -2.4989   -1.2530    0.0000 C   0  0  0  0  0  0  0  0  0  0  0  0
   -2.7671   -2.7288    0.0000 O   0  0  0  0  0  0  0  0  0  0  0  0
   -0.2638    1.9203    0.0000 C   0  0  0  0  0  0  0  0  0  0  0  0
   -0.6191    3.3776    0.0000 C   0  0  0  0  0  0  0  0  0  0  0  0
    0.4653    4.4140    0.0000 C   0  0  0  0  0  0  0  0  0  0  0  0
    1.9051    3.9930    0.0000 C   0  0  0  0  0  0  0  0  0  0  0  0
    2.2603    2.5357    0.0000 C   0  0  0  0  0  0  0  0  0  0  0  0
    1.1759    1.4993    0.0000 C   0  0  0  0  0  0  0  0  0  0  0  0
  1  2  1  0
  2  3  1  0
  3  4  2  0
  3  8  1  0
  4  5  1  0
  5  6  2  0
  6  7  1  0
  6  9  1  0
  7  8  2  0
  9 10  1  0
  9 28  1  0
 10 11  2  0
 11 12  1  0
 11 30  1  0
 12 13  2  0
 12 28  1  0
 13 14  1  0
 14 15  1  0
 14 18  2  0
 15 16  1  0
 16 17  2  0
 16 19  1  0
 17 18  1  0
 19 20  2  0
 19 24  1  0
 20 21  1  0
 21 22  2  0
 22 23  1  0
 23 24  2  0
 24 25  1  0
 25 26  2  0
 25 27  1  0
 28 29  2  0
 30 31  2  0
 30 35  1  0
 31 32  1  0
 32 33  2  0
 33 34  1  0
 34 35  2  0
M  CHG  1  27  -1
M  END
>  <s_m_entry_id>  (340) 
772

>  <s_m_entry_name>  (340) 
3C-like_protease_GHDDI_ligprep.391

>  <s_m_Source_Path>  (340) 
/home/jgilaber/drug_learning/drug_learning/datasets/SAR1/GHDDI

>  <s_m_Source_File>  (340) 
3C-like_protease_GHDDI_ligprep.sdf

>  <i_m_Source_File_Index>  (340) 
391

>  <s_m_subgroup_title>  (340) 
3C-like_protease_GHDDI_ligprep

>  <s_m_subgroupid>  (340) 
3C-like_protease_GHDDI_ligprep

>  <b_m_subgroup_collapsed>  (340) 
0

$$$$
13826
     RDKit          2D

 31 34  0  0  1  0  0  0  0  0999 V2000
   -5.6320   -0.1606    0.0000 C   0  0  0  0  0  0  0  0  0  0  0  0
   -5.0648   -1.5492    0.0000 C   0  0  0  0  0  0  0  0  0  0  0  0
   -4.4976   -2.9379    0.0000 C   0  0  0  0  0  0  0  0  0  0  0  0
   -6.4534   -2.1164    0.0000 C   0  0  0  0  0  0  0  0  0  0  0  0
   -3.6762   -0.9820    0.0000 C   0  0  0  0  0  0  0  0  0  0  0  0
   -3.4731    0.5042    0.0000 C   0  0  0  0  0  0  0  0  0  0  0  0
   -2.0845    1.0714    0.0000 C   0  0  0  0  0  0  0  0  0  0  0  0
   -0.8989    0.1524    0.0000 C   0  0  0  0  0  0  0  0  0  0  0  0
   -1.1020   -1.3338    0.0000 C   0  0  0  0  0  0  0  0  0  0  0  0
   -2.4906   -1.9010    0.0000 C   0  0  0  0  0  0  0  0  0  0  0  0
    0.4897    0.7196    0.0000 N   0  0  0  0  0  0  0  0  0  0  0  0
    1.6752   -0.1994    0.0000 C   0  0  0  0  0  0  0  0  0  0  0  0
    1.4721   -1.6855    0.0000 C   0  0  0  0  0  0  0  0  0  0  0  0
    0.0835   -2.2528    0.0000 O   0  0  0  0  0  0  0  0  0  0  0  0
    2.6577   -2.6045    0.0000 N   0  0  0  0  0  0  0  0  0  0  0  0
    2.4546   -4.0907    0.0000 C   0  0  0  0  0  0  0  0  0  0  0  0
    3.0218   -5.4793    0.0000 C   0  0  0  0  0  0  0  0  0  0  0  0
    1.5356   -5.2762    0.0000 C   0  0  0  0  0  0  0  0  0  0  0  0
    3.0638    0.3679    0.0000 C   0  0  0  0  0  0  0  0  0  0  0  0
    4.2494   -0.5511    0.0000 C   0  0  0  0  0  0  0  0  0  0  0  0
    5.6380    0.0161    0.0000 C   0  0  0  0  0  0  0  0  0  0  0  0
    5.8411    1.5023    0.0000 C   0  0  0  0  0  0  0  0  0  0  0  0
    4.6556    2.4213    0.0000 N   0  0  0  0  0  0  0  0  0  0  0  0
    3.2669    1.8540    0.0000 C   0  0  0  0  0  0  0  0  0  0  0  0
    0.6928    2.2058    0.0000 C   0  0  0  0  0  0  0  0  0  0  0  0
    2.0814    2.7730    0.0000 O   0  0  0  0  0  0  0  0  0  0  0  0
   -0.4928    3.1248    0.0000 C   0  0  0  0  0  0  0  0  0  0  0  0
   -0.4461    4.6241    0.0000 C   0  0  0  0  0  0  0  0  0  0  0  0
   -1.8576    5.1317    0.0000 N   0  0  0  0  0  0  0  0  0  0  0  0
   -2.7766    3.9462    0.0000 C   0  0  0  0  0  0  0  0  0  0  0  0
   -1.9331    2.7058    0.0000 N   0  0  0  0  0  0  0  0  0  0  0  0
  1  2  1  0
  2  3  1  0
  2  4  1  0
  2  5  1  0
  5  6  2  0
  5 10  1  0
  6  7  1  0
  7  8  2  0
  8  9  1  0
  8 11  1  0
  9 10  2  0
 11 12  1  0
 11 25  1  0
 12 13  1  0
 12 19  1  0
 13 14  2  0
 13 15  1  0
 15 16  1  0
 16 17  1  0
 16 18  1  0
 17 18  1  0
 19 20  2  0
 19 24  1  0
 20 21  1  0
 21 22  2  0
 22 23  1  0
 23 24  2  0
 25 26  2  0
 25 27  1  0
 27 28  2  0
 27 31  1  0
 28 29  1  0
 29 30  2  0
 30 31  1  0
M  END
>  <s_m_entry_id>  (341) 
774

>  <s_m_entry_name>  (341) 
3C-like_protease_GHDDI_ligprep.393

>  <s_m_Source_Path>  (341) 
/home/jgilaber/drug_learning/drug_learning/datasets/SAR1/GHDDI

>  <s_m_Source_File>  (341) 
3C-like_protease_GHDDI_ligprep.sdf

>  <i_m_Source_File_Index>  (341) 
393

>  <s_m_subgroup_title>  (341) 
3C-like_protease_GHDDI_ligprep

>  <s_m_subgroupid>  (341) 
3C-like_protease_GHDDI_ligprep

>  <b_m_subgroup_collapsed>  (341) 
0

$$$$
13828
     RDKit          2D

 26 27  0  0  1  0  0  0  0  0999 V2000
   -5.8599    2.0243    0.0000 C   0  0  0  0  0  0  0  0  0  0  0  0
   -4.8355    0.9286    0.0000 O   0  0  0  0  0  0  0  0  0  0  0  0
   -3.3744    1.2680    0.0000 C   0  0  0  0  0  0  0  0  0  0  0  0
   -2.9377    2.7030    0.0000 C   0  0  0  0  0  0  0  0  0  0  0  0
   -1.4766    3.0424    0.0000 C   0  0  0  0  0  0  0  0  0  0  0  0
   -0.4521    1.9467    0.0000 C   0  0  0  0  0  0  0  0  0  0  0  0
    1.0090    2.2861    0.0000 C   0  0  0  0  0  0  0  0  0  0  0  0
    1.4456    3.7211    0.0000 O   0  0  0  0  0  0  0  0  0  0  0  0
    2.0334    1.1904    0.0000 C   0  0  0  0  0  0  0  0  0  0  0  0
    3.4945    1.5298    0.0000 C   0  0  0  0  0  0  0  0  0  0  0  0
    4.5190    0.4341    0.0000 C   0  0  0  0  0  0  0  0  0  0  0  0
    4.0823   -1.0010    0.0000 C   0  0  0  0  0  0  0  0  0  0  0  0
    5.1068   -2.0966    0.0000 C   0  0  0  0  0  0  0  0  0  0  0  0
    6.5679   -1.7573    0.0000 C   0  0  0  0  0  0  0  0  0  0  0  0
    7.5923   -2.8529    0.0000 O   0  0  0  0  0  0  0  0  0  0  0  0
    7.0045   -0.3222    0.0000 C   0  0  0  0  0  0  0  0  0  0  0  0
    5.9801    0.7734    0.0000 C   0  0  0  0  0  0  0  0  0  0  0  0
   -0.8888    0.5117    0.0000 C   0  0  0  0  0  0  0  0  0  0  0  0
    0.1356   -0.5840    0.0000 O   0  0  0  0  0  0  0  0  0  0  0  0
   -2.3499    0.1723    0.0000 C   0  0  0  0  0  0  0  0  0  0  0  0
   -2.7866   -1.2627    0.0000 C   0  0  0  0  0  0  0  0  0  0  0  0
   -4.2477   -1.6021    0.0000 C   0  0  0  0  0  0  0  0  0  0  0  0
   -5.2721   -0.5064    0.0000 O   0  0  0  0  0  0  0  0  0  0  0  0
   -4.6843   -3.0371    0.0000 C   0  0  0  0  0  0  0  0  0  0  0  0
   -3.6599   -4.1328    0.0000 C   0  0  0  0  0  0  0  0  0  0  0  0
   -6.1454   -3.3765    0.0000 C   0  0  0  0  0  0  0  0  0  0  0  0
  1  2  1  0
  2  3  1  0
  3  4  2  0
  3 20  1  0
  4  5  1  0
  5  6  2  0
  6  7  1  0
  6 18  1  0
  7  8  2  0
  7  9  1  0
  9 10  2  0
 10 11  1  0
 11 12  2  0
 11 17  1  0
 12 13  1  0
 13 14  2  0
 14 15  1  0
 14 16  1  0
 16 17  2  0
 18 19  1  0
 18 20  2  0
 20 21  1  0
 21 22  1  0
 22 23  1  0
 22 24  1  0
 24 25  2  0
 24 26  1  0
M  END
>  <s_m_entry_id>  (342) 
781

>  <s_m_entry_name>  (342) 
3C-like_protease_GHDDI_ligprep.400

>  <s_m_Source_Path>  (342) 
/home/jgilaber/drug_learning/drug_learning/datasets/SAR1/GHDDI

>  <s_m_Source_File>  (342) 
3C-like_protease_GHDDI_ligprep.sdf

>  <i_m_Source_File_Index>  (342) 
400

>  <s_m_subgroup_title>  (342) 
3C-like_protease_GHDDI_ligprep

>  <s_m_subgroupid>  (342) 
3C-like_protease_GHDDI_ligprep

>  <b_m_subgroup_collapsed>  (342) 
0

$$$$
13829
     RDKit          2D

 38 42  0  0  1  0  0  0  0  0999 V2000
   -6.9518    2.1475    0.0000 C   0  0  0  0  0  0  0  0  0  0  0  0
   -6.2986    0.7972    0.0000 C   0  0  0  0  0  0  0  0  0  0  0  0
   -5.6455   -0.5531    0.0000 C   0  0  0  0  0  0  0  0  0  0  0  0
   -7.6490    0.1440    0.0000 C   0  0  0  0  0  0  0  0  0  0  0  0
   -4.9483    1.4504    0.0000 N   0  0  0  0  0  0  0  0  0  0  0  0
   -3.7075    0.6075    0.0000 C   0  0  0  0  0  0  0  0  0  0  0  0
   -3.8170   -0.8885    0.0000 O   0  0  0  0  0  0  0  0  0  0  0  0
   -2.3572    1.2607    0.0000 C   0  0  0  0  0  0  0  0  0  0  0  0
   -1.1164    0.4179    0.0000 N   0  0  0  0  0  0  0  0  0  0  0  0
   -1.2259   -1.0781    0.0000 C   0  0  0  0  0  0  0  0  0  0  0  0
   -2.5762   -1.7313    0.0000 O   0  0  0  0  0  0  0  0  0  0  0  0
    0.0150   -1.9210    0.0000 C   0  0  0  0  0  0  0  0  0  0  0  0
   -0.0946   -3.4170    0.0000 N   0  0  0  0  0  0  0  0  0  0  0  0
   -1.3692   -4.2077    0.0000 C   0  0  0  0  0  0  0  0  0  0  0  0
   -1.0111   -5.6643    0.0000 N   0  0  0  0  0  0  0  0  0  0  0  0
    0.4849   -5.7738    0.0000 C   0  0  0  0  0  0  0  0  0  0  0  0
    1.4046   -6.9588    0.0000 C   0  0  0  0  0  0  0  0  0  0  0  0
    2.8906   -6.7549    0.0000 C   0  0  0  0  0  0  0  0  0  0  0  0
    3.4571   -5.3660    0.0000 C   0  0  0  0  0  0  0  0  0  0  0  0
    2.5374   -4.1810    0.0000 C   0  0  0  0  0  0  0  0  0  0  0  0
    1.0514   -4.3849    0.0000 C   0  0  0  0  0  0  0  0  0  0  0  0
    0.2340    1.0710    0.0000 C   0  0  0  0  0  0  0  0  0  0  0  0
    1.4748    0.2282    0.0000 C   0  0  0  0  0  0  0  0  0  0  0  0
    2.8251    0.8814    0.0000 C   0  0  0  0  0  0  0  0  0  0  0  0
    2.9346    2.3773    0.0000 C   0  0  0  0  0  0  0  0  0  0  0  0
    4.2849    3.0305    0.0000 N   0  0  0  0  0  0  0  0  0  0  0  0
    5.5258    2.1877    0.0000 C   0  0  0  0  0  0  0  0  0  0  0  0
    5.4163    0.6917    0.0000 O   0  0  0  0  0  0  0  0  0  0  0  0
    6.8761    2.8408    0.0000 C   0  0  0  0  0  0  0  0  0  0  0  0
    7.7189    4.0817    0.0000 C   0  0  0  0  0  0  0  0  0  0  0  0
    8.3721    2.7313    0.0000 C   0  0  0  0  0  0  0  0  0  0  0  0
    1.6938    3.2202    0.0000 C   0  0  0  0  0  0  0  0  0  0  0  0
    0.3435    2.5670    0.0000 C   0  0  0  0  0  0  0  0  0  0  0  0
   -2.2477    2.7567    0.0000 C   0  0  0  0  0  0  0  0  0  0  0  0
   -3.3936    3.7246    0.0000 C   0  0  0  0  0  0  0  0  0  0  0  0
   -2.8272    5.1136    0.0000 C   0  0  0  0  0  0  0  0  0  0  0  0
   -1.3312    5.0040    0.0000 S   0  0  0  0  0  0  0  0  0  0  0  0
   -0.9730    3.5474    0.0000 C   0  0  0  0  0  0  0  0  0  0  0  0
  1  2  1  0
  2  3  1  0
  2  4  1  0
  2  5  1  0
  5  6  1  0
  6  7  2  0
  6  8  1  0
  8  9  1  0
  8 34  1  0
  9 10  1  0
  9 22  1  0
 10 11  2  0
 10 12  1  0
 12 13  1  0
 13 14  1  0
 13 21  1  0
 14 15  2  0
 15 16  1  0
 16 17  1  0
 16 21  2  0
 17 18  2  0
 18 19  1  0
 19 20  2  0
 20 21  1  0
 22 23  2  0
 22 33  1  0
 23 24  1  0
 24 25  2  0
 25 26  1  0
 25 32  1  0
 26 27  1  0
 27 28  2  0
 27 29  1  0
 29 30  1  0
 29 31  1  0
 30 31  1  0
 32 33  2  0
 34 35  1  0
 34 38  2  0
 35 36  2  0
 36 37  1  0
 37 38  1  0
M  END
>  <s_m_entry_id>  (343) 
783

>  <s_m_entry_name>  (343) 
3C-like_protease_GHDDI_ligprep.402

>  <s_m_Source_Path>  (343) 
/home/jgilaber/drug_learning/drug_learning/datasets/SAR1/GHDDI

>  <s_m_Source_File>  (343) 
3C-like_protease_GHDDI_ligprep.sdf

>  <i_m_Source_File_Index>  (343) 
402

>  <s_m_subgroup_title>  (343) 
3C-like_protease_GHDDI_ligprep

>  <s_m_subgroupid>  (343) 
3C-like_protease_GHDDI_ligprep

>  <b_m_subgroup_collapsed>  (343) 
0

$$$$
13830
     RDKit          2D

 35 39  0  0  1  0  0  0  0  0999 V2000
   -5.5671   -4.2359    0.0000 O   0  0  0  0  0  0  0  0  0  0  0  0
   -4.9619   -2.8634    0.0000 C   0  0  0  0  0  0  0  0  0  0  0  0
   -3.4707   -2.7012    0.0000 O   0  0  0  0  0  0  0  0  0  0  0  0
   -5.8480   -1.6531    0.0000 C   0  0  0  0  0  0  0  0  0  0  0  0
   -7.3392   -1.8152    0.0000 C   0  0  0  0  0  0  0  0  0  0  0  0
   -8.2253   -0.6049    0.0000 C   0  0  0  0  0  0  0  0  0  0  0  0
   -7.6201    0.7676    0.0000 C   0  0  0  0  0  0  0  0  0  0  0  0
   -6.1289    0.9298    0.0000 C   0  0  0  0  0  0  0  0  0  0  0  0
   -5.2428   -0.2805    0.0000 C   0  0  0  0  0  0  0  0  0  0  0  0
   -3.7516   -0.1184    0.0000 C   0  0  0  0  0  0  0  0  0  0  0  0
   -3.0063    1.1834    0.0000 O   0  0  0  0  0  0  0  0  0  0  0  0
   -1.5380    0.8768    0.0000 C   0  0  0  0  0  0  0  0  0  0  0  0
   -0.4269    1.8845    0.0000 C   0  0  0  0  0  0  0  0  0  0  0  0
    1.0014    1.4261    0.0000 C   0  0  0  0  0  0  0  0  0  0  0  0
    1.4700    0.0012    0.0000 C   0  0  0  0  0  0  0  0  0  0  0  0
    0.5927   -1.2155    0.0000 O   0  0  0  0  0  0  0  0  0  0  0  0
    2.9700    0.0066    0.0000 N   0  0  0  0  0  0  0  0  0  0  0  0
    3.4284    1.4349    0.0000 N   0  0  0  0  0  0  0  0  0  0  0  0
    2.2117    2.3122    0.0000 C   0  0  0  0  0  0  0  0  0  0  0  0
    2.2063    3.8122    0.0000 C   0  0  0  0  0  0  0  0  0  0  0  0
    3.5026    4.5668    0.0000 C   0  0  0  0  0  0  0  0  0  0  0  0
    3.4972    6.0668    0.0000 C   0  0  0  0  0  0  0  0  0  0  0  0
    2.1955    6.8121    0.0000 C   0  0  0  0  0  0  0  0  0  0  0  0
    0.8991    6.0575    0.0000 C   0  0  0  0  0  0  0  0  0  0  0  0
    0.9045    4.5575    0.0000 C   0  0  0  0  0  0  0  0  0  0  0  0
    3.8561   -1.2037    0.0000 C   0  0  0  0  0  0  0  0  0  0  0  0
    3.2509   -2.5762    0.0000 C   0  0  0  0  0  0  0  0  0  0  0  0
    4.1370   -3.7866    0.0000 C   0  0  0  0  0  0  0  0  0  0  0  0
    5.6282   -3.6244    0.0000 C   0  0  0  0  0  0  0  0  0  0  0  0
    6.2333   -2.2519    0.0000 C   0  0  0  0  0  0  0  0  0  0  0  0
    5.3473   -1.0415    0.0000 C   0  0  0  0  0  0  0  0  0  0  0  0
    6.5142   -4.8347    0.0000 C   0  0  0  0  0  0  0  0  0  0  0  0
    7.4003   -6.0451    0.0000 N   0  0  0  0  0  0  0  0  0  0  0  0
   -1.3758   -0.6144    0.0000 C   0  0  0  0  0  0  0  0  0  0  0  0
   -2.7439   -1.2295    0.0000 C   0  0  0  0  0  0  0  0  0  0  0  0
  1  2  1  0
  2  3  2  0
  2  4  1  0
  4  5  2  0
  4  9  1  0
  5  6  1  0
  6  7  2  0
  7  8  1  0
  8  9  2  0
  9 10  1  0
 10 11  1  0
 10 35  2  0
 11 12  1  0
 12 13  1  0
 12 34  2  0
 13 14  2  0
 14 15  1  0
 14 19  1  0
 15 16  2  0
 15 17  1  0
 17 18  1  0
 17 26  1  0
 18 19  2  0
 19 20  1  0
 20 21  2  0
 20 25  1  0
 21 22  1  0
 22 23  2  0
 23 24  1  0
 24 25  2  0
 26 27  2  0
 26 31  1  0
 27 28  1  0
 28 29  2  0
 29 30  1  0
 29 32  1  0
 30 31  2  0
 32 33  3  0
 34 35  1  0
M  CHG  1   1  -1
M  END
>  <s_m_entry_id>  (344) 
785

>  <s_m_entry_name>  (344) 
3C-like_protease_GHDDI_ligprep.404

>  <s_m_Source_Path>  (344) 
/home/jgilaber/drug_learning/drug_learning/datasets/SAR1/GHDDI

>  <s_m_Source_File>  (344) 
3C-like_protease_GHDDI_ligprep.sdf

>  <i_m_Source_File_Index>  (344) 
404

>  <s_m_subgroup_title>  (344) 
3C-like_protease_GHDDI_ligprep

>  <s_m_subgroupid>  (344) 
3C-like_protease_GHDDI_ligprep

>  <b_m_subgroup_collapsed>  (344) 
0

$$$$
13831
     RDKit          2D

 36 40  0  0  1  0  0  0  0  0999 V2000
   -0.1819   -7.0499    0.0000 O   0  0  0  0  0  0  0  0  0  0  0  0
   -0.2343   -5.5509    0.0000 C   0  0  0  0  0  0  0  0  0  0  0  0
    1.0378   -4.7559    0.0000 O   0  0  0  0  0  0  0  0  0  0  0  0
   -1.5587   -4.8467    0.0000 C   0  0  0  0  0  0  0  0  0  0  0  0
   -2.8308   -5.6416    0.0000 C   0  0  0  0  0  0  0  0  0  0  0  0
   -4.1552   -4.9374    0.0000 C   0  0  0  0  0  0  0  0  0  0  0  0
   -4.2076   -3.4383    0.0000 C   0  0  0  0  0  0  0  0  0  0  0  0
   -2.9355   -2.6434    0.0000 C   0  0  0  0  0  0  0  0  0  0  0  0
   -1.6111   -3.3476    0.0000 C   0  0  0  0  0  0  0  0  0  0  0  0
   -2.9879   -1.1443    0.0000 N   0  0  0  0  0  0  0  0  0  0  0  0
   -4.2315   -0.3056    0.0000 N   0  0  0  0  0  0  0  0  0  0  0  0
   -3.8181    1.1363    0.0000 C   0  0  0  0  0  0  0  0  0  0  0  0
   -2.3190    1.1887    0.0000 C   0  0  0  0  0  0  0  0  0  0  0  0
   -1.4803    2.4323    0.0000 C   0  0  0  0  0  0  0  0  0  0  0  0
    0.0161    2.3277    0.0000 C   0  0  0  0  0  0  0  0  0  0  0  0
    0.6737    0.9795    0.0000 C   0  0  0  0  0  0  0  0  0  0  0  0
    2.1700    0.8749    0.0000 C   0  0  0  0  0  0  0  0  0  0  0  0
    3.0088    2.1185    0.0000 C   0  0  0  0  0  0  0  0  0  0  0  0
    4.5051    2.0139    0.0000 O   0  0  0  0  0  0  0  0  0  0  0  0
    5.1627    0.6657    0.0000 C   0  0  0  0  0  0  0  0  0  0  0  0
    6.6591    0.5611    0.0000 C   0  0  0  0  0  0  0  0  0  0  0  0
    7.3167   -0.7870    0.0000 C   0  0  0  0  0  0  0  0  0  0  0  0
    8.8130   -0.8916    0.0000 C   0  0  0  0  0  0  0  0  0  0  0  0
    9.6518    0.3520    0.0000 C   0  0  0  0  0  0  0  0  0  0  0  0
    8.9942    1.7001    0.0000 C   0  0  0  0  0  0  0  0  0  0  0  0
    7.4978    1.8047    0.0000 C   0  0  0  0  0  0  0  0  0  0  0  0
    2.3512    3.4667    0.0000 C   0  0  0  0  0  0  0  0  0  0  0  0
    0.8548    3.5713    0.0000 C   0  0  0  0  0  0  0  0  0  0  0  0
   -1.8059   -0.2208    0.0000 C   0  0  0  0  0  0  0  0  0  0  0  0
   -0.3640   -0.6342    0.0000 O   0  0  0  0  0  0  0  0  0  0  0  0
   -4.7416    2.3183    0.0000 C   0  0  0  0  0  0  0  0  0  0  0  0
   -4.1798    3.7091    0.0000 C   0  0  0  0  0  0  0  0  0  0  0  0
   -5.1033    4.8911    0.0000 C   0  0  0  0  0  0  0  0  0  0  0  0
   -6.5887    4.6823    0.0000 C   0  0  0  0  0  0  0  0  0  0  0  0
   -7.1505    3.2915    0.0000 C   0  0  0  0  0  0  0  0  0  0  0  0
   -6.2270    2.1095    0.0000 C   0  0  0  0  0  0  0  0  0  0  0  0
  1  2  1  0
  2  3  2  0
  2  4  1  0
  4  5  2  0
  4  9  1  0
  5  6  1  0
  6  7  2  0
  7  8  1  0
  8  9  2  0
  8 10  1  0
 10 11  1  0
 10 29  1  0
 11 12  2  0
 12 13  1  0
 12 31  1  0
 13 14  2  0
 13 29  1  0
 14 15  1  0
 15 16  2  0
 15 28  1  0
 16 17  1  0
 17 18  2  0
 18 19  1  0
 18 27  1  0
 19 20  1  0
 20 21  1  0
 21 22  2  0
 21 26  1  0
 22 23  1  0
 23 24  2  0
 24 25  1  0
 25 26  2  0
 27 28  2  0
 29 30  2  0
 31 32  2  0
 31 36  1  0
 32 33  1  0
 33 34  2  0
 34 35  1  0
 35 36  2  0
M  CHG  1   1  -1
M  END
>  <s_m_entry_id>  (345) 
787

>  <s_m_entry_name>  (345) 
3C-like_protease_GHDDI_ligprep.406

>  <s_m_Source_Path>  (345) 
/home/jgilaber/drug_learning/drug_learning/datasets/SAR1/GHDDI

>  <s_m_Source_File>  (345) 
3C-like_protease_GHDDI_ligprep.sdf

>  <i_m_Source_File_Index>  (345) 
406

>  <s_m_subgroup_title>  (345) 
3C-like_protease_GHDDI_ligprep

>  <s_m_subgroupid>  (345) 
3C-like_protease_GHDDI_ligprep

>  <b_m_subgroup_collapsed>  (345) 
0

$$$$
13832
     RDKit          2D

 30 31  0  0  1  0  0  0  0  0999 V2000
   -9.6846    0.4876    0.0000 C   0  0  0  0  0  0  0  0  0  0  0  0
   -8.1864    0.5597    0.0000 O   0  0  0  0  0  0  0  0  0  0  0  0
   -7.3748   -0.7018    0.0000 C   0  0  0  0  0  0  0  0  0  0  0  0
   -5.8765   -0.6296    0.0000 C   0  0  0  0  0  0  0  0  0  0  0  0
   -5.0649   -1.8911    0.0000 C   0  0  0  0  0  0  0  0  0  0  0  0
   -3.5667   -1.8190    0.0000 C   0  0  0  0  0  0  0  0  0  0  0  0
   -2.8800   -0.4854    0.0000 C   0  0  0  0  0  0  0  0  0  0  0  0
   -1.3817   -0.4133    0.0000 C   0  0  0  0  0  0  0  0  0  0  0  0
   -0.6950    0.9203    0.0000 C   0  0  0  0  0  0  0  0  0  0  0  0
   -1.5066    2.1818    0.0000 C   0  0  0  0  0  0  0  0  0  0  0  0
   -3.0049    2.1096    0.0000 O   0  0  0  0  0  0  0  0  0  0  0  0
   -0.8199    3.5154    0.0000 C   0  0  0  0  0  0  0  0  0  0  0  0
    0.6783    3.5875    0.0000 C   0  0  0  0  0  0  0  0  0  0  0  0
    1.4899    2.3260    0.0000 C   0  0  0  0  0  0  0  0  0  0  0  0
    2.9882    2.3981    0.0000 C   0  0  0  0  0  0  0  0  0  0  0  0
    3.6749    3.7317    0.0000 O   0  0  0  0  0  0  0  0  0  0  0  0
    3.7998    1.1366    0.0000 C   0  0  0  0  0  0  0  0  0  0  0  0
    5.2980    1.2087    0.0000 C   0  0  0  0  0  0  0  0  0  0  0  0
    6.1096   -0.0528    0.0000 C   0  0  0  0  0  0  0  0  0  0  0  0
    5.4229   -1.3864    0.0000 C   0  0  0  0  0  0  0  0  0  0  0  0
    6.2345   -2.6478    0.0000 C   0  0  0  0  0  0  0  0  0  0  0  0
    7.7328   -2.5757    0.0000 C   0  0  0  0  0  0  0  0  0  0  0  0
    8.5443   -3.8372    0.0000 O   0  0  0  0  0  0  0  0  0  0  0  0
    8.4194   -1.2421    0.0000 C   0  0  0  0  0  0  0  0  0  0  0  0
    7.6079    0.0193    0.0000 C   0  0  0  0  0  0  0  0  0  0  0  0
    0.8032    0.9924    0.0000 C   0  0  0  0  0  0  0  0  0  0  0  0
    1.6148   -0.2691    0.0000 O   0  0  0  0  0  0  0  0  0  0  0  0
   -2.7551   -3.0805    0.0000 C   0  0  0  0  0  0  0  0  0  0  0  0
   -8.0615   -2.0353    0.0000 O   0  0  0  0  0  0  0  0  0  0  0  0
   -9.5597   -2.1075    0.0000 C   0  0  0  0  0  0  0  0  0  0  0  0
  1  2  1  0
  2  3  1  0
  3  4  1  0
  3 29  1  0
  4  5  1  0
  5  6  1  0
  6  7  2  0
  6 28  1  0
  7  8  1  0
  8  9  1  0
  9 10  2  0
  9 26  1  0
 10 11  1  0
 10 12  1  0
 12 13  2  0
 13 14  1  0
 14 15  1  0
 14 26  2  0
 15 16  2  0
 15 17  1  0
 17 18  2  0
 18 19  1  0
 19 20  2  0
 19 25  1  0
 20 21  1  0
 21 22  2  0
 22 23  1  0
 22 24  1  0
 24 25  2  0
 26 27  1  0
 29 30  1  0
M  END
>  <s_m_entry_id>  (346) 
788

>  <s_m_entry_name>  (346) 
3C-like_protease_GHDDI_ligprep.407

>  <s_m_Source_Path>  (346) 
/home/jgilaber/drug_learning/drug_learning/datasets/SAR1/GHDDI

>  <s_m_Source_File>  (346) 
3C-like_protease_GHDDI_ligprep.sdf

>  <i_m_Source_File_Index>  (346) 
407

>  <s_m_subgroup_title>  (346) 
3C-like_protease_GHDDI_ligprep

>  <s_m_subgroupid>  (346) 
3C-like_protease_GHDDI_ligprep

>  <b_m_subgroup_collapsed>  (346) 
0

$$$$
13833
     RDKit          2D

 35 39  0  0  1  0  0  0  0  0999 V2000
   -5.4520   -4.0438    0.0000 O   0  0  0  0  0  0  0  0  0  0  0  0
   -4.7394   -2.7238    0.0000 C   0  0  0  0  0  0  0  0  0  0  0  0
   -3.2401   -2.6809    0.0000 O   0  0  0  0  0  0  0  0  0  0  0  0
   -5.5263   -1.4468    0.0000 C   0  0  0  0  0  0  0  0  0  0  0  0
   -7.0257   -1.4897    0.0000 C   0  0  0  0  0  0  0  0  0  0  0  0
   -7.8125   -0.2126    0.0000 C   0  0  0  0  0  0  0  0  0  0  0  0
   -7.1000    1.1073    0.0000 C   0  0  0  0  0  0  0  0  0  0  0  0
   -7.8868    2.3844    0.0000 Cl  0  0  0  0  0  0  0  0  0  0  0  0
   -5.6006    1.1502    0.0000 C   0  0  0  0  0  0  0  0  0  0  0  0
   -4.8138   -0.1268    0.0000 C   0  0  0  0  0  0  0  0  0  0  0  0
   -3.3144   -0.0839    0.0000 C   0  0  0  0  0  0  0  0  0  0  0  0
   -2.4678    1.1543    0.0000 O   0  0  0  0  0  0  0  0  0  0  0  0
   -1.0285    0.7318    0.0000 C   0  0  0  0  0  0  0  0  0  0  0  0
    0.1593    1.6478    0.0000 C   0  0  0  0  0  0  0  0  0  0  0  0
    1.5465    1.0772    0.0000 C   0  0  0  0  0  0  0  0  0  0  0  0
    1.9002   -0.3805    0.0000 C   0  0  0  0  0  0  0  0  0  0  0  0
    0.9288   -1.5235    0.0000 O   0  0  0  0  0  0  0  0  0  0  0  0
    3.3959   -0.4946    0.0000 N   0  0  0  0  0  0  0  0  0  0  0  0
    3.9665    0.8926    0.0000 N   0  0  0  0  0  0  0  0  0  0  0  0
    2.8236    1.8640    0.0000 C   0  0  0  0  0  0  0  0  0  0  0  0
    2.9376    3.3597    0.0000 C   0  0  0  0  0  0  0  0  0  0  0  0
    4.2899    4.0087    0.0000 C   0  0  0  0  0  0  0  0  0  0  0  0
    4.4040    5.5044    0.0000 C   0  0  0  0  0  0  0  0  0  0  0  0
    3.1658    6.3510    0.0000 C   0  0  0  0  0  0  0  0  0  0  0  0
    1.8134    5.7019    0.0000 C   0  0  0  0  0  0  0  0  0  0  0  0
    1.6994    4.2063    0.0000 C   0  0  0  0  0  0  0  0  0  0  0  0
    4.1827   -1.7717    0.0000 C   0  0  0  0  0  0  0  0  0  0  0  0
    3.4702   -3.0916    0.0000 C   0  0  0  0  0  0  0  0  0  0  0  0
    4.2570   -4.3687    0.0000 C   0  0  0  0  0  0  0  0  0  0  0  0
    5.7564   -4.3258    0.0000 C   0  0  0  0  0  0  0  0  0  0  0  0
    6.5433   -5.6028    0.0000 F   0  0  0  0  0  0  0  0  0  0  0  0
    6.4690   -3.0058    0.0000 C   0  0  0  0  0  0  0  0  0  0  0  0
    5.6821   -1.7288    0.0000 C   0  0  0  0  0  0  0  0  0  0  0  0
   -0.9856   -0.7676    0.0000 C   0  0  0  0  0  0  0  0  0  0  0  0
   -2.3983   -1.2717    0.0000 C   0  0  0  0  0  0  0  0  0  0  0  0
  1  2  1  0
  2  3  2  0
  2  4  1  0
  4  5  2  0
  4 10  1  0
  5  6  1  0
  6  7  2  0
  7  8  1  0
  7  9  1  0
  9 10  2  0
 10 11  1  0
 11 12  1  0
 11 35  2  0
 12 13  1  0
 13 14  1  0
 13 34  2  0
 14 15  2  0
 15 16  1  0
 15 20  1  0
 16 17  2  0
 16 18  1  0
 18 19  1  0
 18 27  1  0
 19 20  2  0
 20 21  1  0
 21 22  2  0
 21 26  1  0
 22 23  1  0
 23 24  2  0
 24 25  1  0
 25 26  2  0
 27 28  2  0
 27 33  1  0
 28 29  1  0
 29 30  2  0
 30 31  1  0
 30 32  1  0
 32 33  2  0
 34 35  1  0
M  CHG  1   1  -1
M  END
>  <s_m_entry_id>  (347) 
790

>  <s_m_entry_name>  (347) 
3C-like_protease_GHDDI_ligprep.409

>  <s_m_Source_Path>  (347) 
/home/jgilaber/drug_learning/drug_learning/datasets/SAR1/GHDDI

>  <s_m_Source_File>  (347) 
3C-like_protease_GHDDI_ligprep.sdf

>  <i_m_Source_File_Index>  (347) 
409

>  <s_m_subgroup_title>  (347) 
3C-like_protease_GHDDI_ligprep

>  <s_m_subgroupid>  (347) 
3C-like_protease_GHDDI_ligprep

>  <b_m_subgroup_collapsed>  (347) 
0

$$$$
13834
     RDKit          2D

 44 44  0  0  1  0  0  0  0  0999 V2000
   -9.6878   -0.3212    0.0000 C   0  0  0  0  0  0  0  0  0  0  0  0
   -8.6554   -1.4094    0.0000 C   0  0  0  0  0  0  0  0  0  0  0  0
   -7.1968   -1.0595    0.0000 O   0  0  0  0  0  0  0  0  0  0  0  0
   -6.1645   -2.1478    0.0000 C   0  0  0  0  0  0  0  0  0  0  0  0
   -6.5907   -3.5859    0.0000 O   0  0  0  0  0  0  0  0  0  0  0  0
   -4.7058   -1.7978    0.0000 C   0  0  0  0  0  0  0  0  0  0  0  0
   -3.6735   -2.8861    0.0000 C   0  0  0  0  0  0  0  0  0  0  0  0
   -2.2149   -2.5362    0.0000 C   0  0  0  0  0  0  0  0  0  0  0  0
   -1.1825   -3.6244    0.0000 C   0  0  0  0  0  0  0  0  0  0  0  0
    0.2761   -3.2745    0.0000 C   0  0  0  0  0  0  0  0  0  0  0  0
    1.4165   -4.2489    0.0000 C   0  0  0  0  0  0  0  0  0  0  0  0
    2.6956   -3.4653    0.0000 C   0  0  0  0  0  0  0  0  0  0  0  0
    2.3457   -2.0067    0.0000 N   0  0  0  0  0  0  0  0  0  0  0  0
    0.8503   -1.8888    0.0000 C   0  0  0  0  0  0  0  0  0  0  0  0
    0.0668   -0.6097    0.0000 O   0  0  0  0  0  0  0  0  0  0  0  0
   -1.7886   -1.0980    0.0000 N   0  0  0  0  0  0  0  0  0  0  0  0
   -2.8210   -0.0098    0.0000 C   0  0  0  0  0  0  0  0  0  0  0  0
   -4.2796   -0.3597    0.0000 O   0  0  0  0  0  0  0  0  0  0  0  0
   -2.3947    1.4284    0.0000 C   0  0  0  0  0  0  0  0  0  0  0  0
   -3.4270    2.5166    0.0000 C   0  0  0  0  0  0  0  0  0  0  0  0
   -4.8857    2.1667    0.0000 C   0  0  0  0  0  0  0  0  0  0  0  0
   -5.9180    3.2549    0.0000 C   0  0  0  0  0  0  0  0  0  0  0  0
   -5.3119    0.7285    0.0000 C   0  0  0  0  0  0  0  0  0  0  0  0
   -0.9361    1.7783    0.0000 N   0  0  0  0  0  0  0  0  0  0  0  0
   -0.5098    3.2165    0.0000 C   0  0  0  0  0  0  0  0  0  0  0  0
   -1.5422    4.3047    0.0000 O   0  0  0  0  0  0  0  0  0  0  0  0
    0.9488    3.5664    0.0000 C   0  0  0  0  0  0  0  0  0  0  0  0
    1.9812    2.4781    0.0000 N   0  0  0  0  0  0  0  0  0  0  0  0
    3.4398    2.8281    0.0000 C   0  0  0  0  0  0  0  0  0  0  0  0
    3.8660    4.2662    0.0000 O   0  0  0  0  0  0  0  0  0  0  0  0
    4.4721    1.7398    0.0000 C   0  0  0  0  0  0  0  0  0  0  0  0
    5.9307    2.0897    0.0000 C   0  0  0  0  0  0  0  0  0  0  0  0
    6.9631    1.0015    0.0000 O   0  0  0  0  0  0  0  0  0  0  0  0
    4.0458    0.3017    0.0000 N   0  0  0  0  0  0  0  0  0  0  0  0
    5.0782   -0.7866    0.0000 C   0  0  0  0  0  0  0  0  0  0  0  0
    6.5368   -0.4367    0.0000 O   0  0  0  0  0  0  0  0  0  0  0  0
    4.6519   -2.2247    0.0000 O   0  0  0  0  0  0  0  0  0  0  0  0
    5.6843   -3.3130    0.0000 C   0  0  0  0  0  0  0  0  0  0  0  0
    4.5960   -4.3453    0.0000 C   0  0  0  0  0  0  0  0  0  0  0  0
    6.7725   -2.2806    0.0000 C   0  0  0  0  0  0  0  0  0  0  0  0
    6.7166   -4.4012    0.0000 C   0  0  0  0  0  0  0  0  0  0  0  0
    1.3751    5.0045    0.0000 C   0  0  0  0  0  0  0  0  0  0  0  0
    2.8337    5.3544    0.0000 C   0  0  0  0  0  0  0  0  0  0  0  0
    0.3427    6.0928    0.0000 C   0  0  0  0  0  0  0  0  0  0  0  0
  1  2  1  0
  2  3  1  0
  3  4  1  0
  4  5  2  0
  4  6  1  0
  6  7  2  0
  7  8  1  0
  8  9  1  0
  8 16  1  0
  9 10  1  0
 10 11  1  0
 10 14  1  0
 11 12  1  0
 12 13  1  0
 13 14  1  0
 14 15  2  0
 16 17  1  0
 17 18  2  0
 17 19  1  0
 19 20  1  0
 19 24  1  0
 20 21  1  0
 21 22  1  0
 21 23  1  0
 24 25  1  0
 25 26  2  0
 25 27  1  0
 27 28  1  0
 27 42  1  0
 28 29  1  0
 29 30  2  0
 29 31  1  0
 31 32  1  0
 31 34  1  0
 32 33  1  0
 34 35  1  0
 35 36  2  0
 35 37  1  0
 37 38  1  0
 38 39  1  0
 38 40  1  0
 38 41  1  0
 42 43  1  0
 42 44  1  0
M  END
>  <s_m_entry_id>  (348) 
792

>  <s_m_entry_name>  (348) 
3C-like_protease_GHDDI_ligprep.411

>  <s_m_Source_Path>  (348) 
/home/jgilaber/drug_learning/drug_learning/datasets/SAR1/GHDDI

>  <s_m_Source_File>  (348) 
3C-like_protease_GHDDI_ligprep.sdf

>  <i_m_Source_File_Index>  (348) 
411

>  <s_m_subgroup_title>  (348) 
3C-like_protease_GHDDI_ligprep

>  <s_m_subgroupid>  (348) 
3C-like_protease_GHDDI_ligprep

>  <b_m_subgroup_collapsed>  (348) 
0

$$$$
13835
     RDKit          2D

 39 40  0  0  1  0  0  0  0  0999 V2000
    1.0613    4.0013    0.0000 C   0  0  0  0  0  0  0  0  0  0  0  0
    0.0774    2.8691    0.0000 C   0  0  0  0  0  0  0  0  0  0  0  0
   -1.3951    3.1551    0.0000 C   0  0  0  0  0  0  0  0  0  0  0  0
    0.5660    1.4509    0.0000 C   0  0  0  0  0  0  0  0  0  0  0  0
    2.0385    1.1649    0.0000 N   0  0  0  0  0  0  0  0  0  0  0  0
    3.0224    2.2971    0.0000 C   0  0  0  0  0  0  0  0  0  0  0  0
    2.5338    3.7153    0.0000 O   0  0  0  0  0  0  0  0  0  0  0  0
    4.4949    2.0111    0.0000 C   0  0  0  0  0  0  0  0  0  0  0  0
    5.4788    3.1433    0.0000 C   0  0  0  0  0  0  0  0  0  0  0  0
    6.9513    2.8574    0.0000 C   0  0  0  0  0  0  0  0  0  0  0  0
    7.4398    1.4392    0.0000 O   0  0  0  0  0  0  0  0  0  0  0  0
    7.9352    3.9896    0.0000 N   0  0  0  0  0  0  0  0  0  0  0  0
    4.9834    0.5929    0.0000 N   0  0  0  0  0  0  0  0  0  0  0  0
    3.9995   -0.5393    0.0000 C   0  0  0  0  0  0  0  0  0  0  0  0
    2.5270   -0.2533    0.0000 O   0  0  0  0  0  0  0  0  0  0  0  0
    4.4881   -1.9575    0.0000 C   0  0  0  0  0  0  0  0  0  0  0  0
   -0.4179    0.3187    0.0000 C   0  0  0  0  0  0  0  0  0  0  0  0
   -1.8904    0.6047    0.0000 O   0  0  0  0  0  0  0  0  0  0  0  0
    0.0706   -1.0995    0.0000 N   0  0  0  0  0  0  0  0  0  0  0  0
   -0.9133   -2.2317    0.0000 C   0  0  0  0  0  0  0  0  0  0  0  0
   -0.4247   -3.6499    0.0000 C   0  0  0  0  0  0  0  0  0  0  0  0
    1.0478   -3.9359    0.0000 C   0  0  0  0  0  0  0  0  0  0  0  0
    1.5363   -5.3541    0.0000 C   0  0  0  0  0  0  0  0  0  0  0  0
    3.0088   -5.6401    0.0000 C   0  0  0  0  0  0  0  0  0  0  0  0
    3.9927   -4.5079    0.0000 C   0  0  0  0  0  0  0  0  0  0  0  0
    3.5042   -3.0897    0.0000 C   0  0  0  0  0  0  0  0  0  0  0  0
    2.0317   -2.8037    0.0000 C   0  0  0  0  0  0  0  0  0  0  0  0
   -2.3858   -1.9457    0.0000 C   0  0  0  0  0  0  0  0  0  0  0  0
   -3.3697   -3.0780    0.0000 O   0  0  0  0  0  0  0  0  0  0  0  0
   -2.8743   -0.5275    0.0000 N   0  0  0  0  0  0  0  0  0  0  0  0
   -4.3468   -0.2415    0.0000 C   0  0  0  0  0  0  0  0  0  0  0  0
   -4.8354    1.1767    0.0000 C   0  0  0  0  0  0  0  0  0  0  0  0
   -6.3079    1.4627    0.0000 C   0  0  0  0  0  0  0  0  0  0  0  0
   -7.4047    0.4395    0.0000 C   0  0  0  0  0  0  0  0  0  0  0  0
   -8.7168    1.1665    0.0000 N   0  0  0  0  0  0  0  0  0  0  0  0
   -8.4308    2.6390    0.0000 C   0  0  0  0  0  0  0  0  0  0  0  0
   -6.9420    2.8220    0.0000 N   0  0  0  0  0  0  0  0  0  0  0  0
   -5.3307   -1.3738    0.0000 C   0  0  0  0  0  0  0  0  0  0  0  0
   -6.8032   -1.0878    0.0000 O   0  0  0  0  0  0  0  0  0  0  0  0
  1  2  1  0
  2  3  1  0
  2  4  1  0
  4  5  1  0
  4 17  1  0
  5  6  1  0
  6  7  2  0
  6  8  1  0
  8  9  1  0
  8 13  1  0
  9 10  1  0
 10 11  2  0
 10 12  1  0
 13 14  1  0
 14 15  2  0
 14 16  1  0
 17 18  2  0
 17 19  1  0
 19 20  1  0
 20 21  1  0
 20 28  1  0
 21 22  1  0
 22 23  1  0
 22 27  1  0
 23 24  1  0
 24 25  1  0
 25 26  1  0
 26 27  1  0
 28 29  2  0
 28 30  1  0
 30 31  1  0
 31 32  1  0
 31 38  1  0
 32 33  1  0
 33 34  2  0
 33 37  1  0
 34 35  1  0
 35 36  1  0
 36 37  2  0
 38 39  2  0
M  END
>  <s_m_entry_id>  (349) 
793

>  <s_m_entry_name>  (349) 
3C-like_protease_GHDDI_ligprep.412

>  <s_m_Source_Path>  (349) 
/home/jgilaber/drug_learning/drug_learning/datasets/SAR1/GHDDI

>  <s_m_Source_File>  (349) 
3C-like_protease_GHDDI_ligprep.sdf

>  <i_m_Source_File_Index>  (349) 
412

>  <s_m_subgroup_title>  (349) 
3C-like_protease_GHDDI_ligprep

>  <s_m_subgroupid>  (349) 
3C-like_protease_GHDDI_ligprep

>  <b_m_subgroup_collapsed>  (349) 
0

$$$$
13836
     RDKit          2D

 21 23  0  0  1  0  0  0  0  0999 V2000
   -5.1292    2.0012    0.0000 C   0  0  0  0  0  0  0  0  0  0  0  0
   -4.1837    0.8367    0.0000 N   0  0  0  0  0  0  0  0  0  0  0  0
   -4.5701   -0.6127    0.0000 C   0  0  0  0  0  0  0  0  0  0  0  0
   -5.9698   -1.1520    0.0000 O   0  0  0  0  0  0  0  0  0  0  0  0
   -3.3111   -1.4281    0.0000 C   0  0  0  0  0  0  0  0  0  0  0  0
   -3.2307   -2.9259    0.0000 O   0  0  0  0  0  0  0  0  0  0  0  0
   -2.1465   -0.4826    0.0000 C   0  0  0  0  0  0  0  0  0  0  0  0
   -0.6647   -0.7154    0.0000 C   0  0  0  0  0  0  0  0  0  0  0  0
    0.2778    0.4515    0.0000 C   0  0  0  0  0  0  0  0  0  0  0  0
   -0.2615    1.8512    0.0000 C   0  0  0  0  0  0  0  0  0  0  0  0
   -1.7433    2.0840    0.0000 C   0  0  0  0  0  0  0  0  0  0  0  0
   -2.6859    0.9171    0.0000 C   0  0  0  0  0  0  0  0  0  0  0  0
    1.7596    0.2187    0.0000 S   0  0  0  0  0  0  0  0  0  0  0  0
    1.5269   -1.2631    0.0000 O   0  0  0  0  0  0  0  0  0  0  0  0
    1.9924    1.7006    0.0000 O   0  0  0  0  0  0  0  0  0  0  0  0
    3.2415   -0.0141    0.0000 N   0  0  0  0  0  0  0  0  0  0  0  0
    3.7808   -1.4137    0.0000 C   0  0  0  0  0  0  0  0  0  0  0  0
    5.2626   -1.6465    0.0000 C   0  0  0  0  0  0  0  0  0  0  0  0
    6.2051   -0.4796    0.0000 O   0  0  0  0  0  0  0  0  0  0  0  0
    5.6658    0.9201    0.0000 C   0  0  0  0  0  0  0  0  0  0  0  0
    4.1840    1.1529    0.0000 C   0  0  0  0  0  0  0  0  0  0  0  0
  1  2  1  0
  2  3  1  0
  2 12  1  0
  3  4  2  0
  3  5  1  0
  5  6  2  0
  5  7  1  0
  7  8  2  0
  7 12  1  0
  8  9  1  0
  9 10  2  0
  9 13  1  0
 10 11  1  0
 11 12  2  0
 13 14  2  0
 13 15  2  0
 13 16  1  0
 16 17  1  0
 16 21  1  0
 17 18  1  0
 18 19  1  0
 19 20  1  0
 20 21  1  0
M  END
>  <s_m_entry_id>  (350) 
799

>  <s_m_entry_name>  (350) 
3C-like_protease_GHDDI_ligprep.418

>  <s_m_Source_Path>  (350) 
/home/jgilaber/drug_learning/drug_learning/datasets/SAR1/GHDDI

>  <s_m_Source_File>  (350) 
3C-like_protease_GHDDI_ligprep.sdf

>  <i_m_Source_File_Index>  (350) 
418

>  <s_m_subgroup_title>  (350) 
3C-like_protease_GHDDI_ligprep

>  <s_m_subgroupid>  (350) 
3C-like_protease_GHDDI_ligprep

>  <b_m_subgroup_collapsed>  (350) 
0

$$$$
13837
     RDKit          2D

 27 30  0  0  1  0  0  0  0  0999 V2000
   -5.9632   -2.1296    0.0000 O   0  0  0  0  0  0  0  0  0  0  0  0
   -5.2192   -0.8272    0.0000 C   0  0  0  0  0  0  0  0  0  0  0  0
   -3.7192   -0.8203    0.0000 N   0  0  0  0  0  0  0  0  0  0  0  0
   -2.9633   -2.1158    0.0000 C   0  0  0  0  0  0  0  0  0  0  0  0
   -1.4633   -2.1089    0.0000 C   0  0  0  0  0  0  0  0  0  0  0  0
   -0.7193   -0.8065    0.0000 N   0  0  0  0  0  0  0  0  0  0  0  0
   -1.4752    0.4891    0.0000 C   0  0  0  0  0  0  0  0  0  0  0  0
   -2.9752    0.4822    0.0000 C   0  0  0  0  0  0  0  0  0  0  0  0
    0.7807   -0.7996    0.0000 S   0  0  0  0  0  0  0  0  0  0  0  0
    0.7738    0.7004    0.0000 O   0  0  0  0  0  0  0  0  0  0  0  0
    0.7876   -2.2996    0.0000 O   0  0  0  0  0  0  0  0  0  0  0  0
    2.2807   -0.7927    0.0000 C   0  0  0  0  0  0  0  0  0  0  0  0
    3.0367   -2.0883    0.0000 C   0  0  0  0  0  0  0  0  0  0  0  0
    4.5367   -2.0814    0.0000 C   0  0  0  0  0  0  0  0  0  0  0  0
    5.2807   -0.7789    0.0000 C   0  0  0  0  0  0  0  0  0  0  0  0
    6.7464   -0.4603    0.0000 N   0  0  0  0  0  0  0  0  0  0  0  0
    6.8964    1.0322    0.0000 C   0  0  0  0  0  0  0  0  0  0  0  0
    8.1920    1.7882    0.0000 O   0  0  0  0  0  0  0  0  0  0  0  0
    5.5233    1.6360    0.0000 C   0  0  0  0  0  0  0  0  0  0  0  0
    5.2047    3.1018    0.0000 O   0  0  0  0  0  0  0  0  0  0  0  0
    4.5247    0.5167    0.0000 C   0  0  0  0  0  0  0  0  0  0  0  0
    3.0247    0.5098    0.0000 C   0  0  0  0  0  0  0  0  0  0  0  0
   -5.9752    0.4684    0.0000 C   0  0  0  0  0  0  0  0  0  0  0  0
   -7.4677    0.6184    0.0000 O   0  0  0  0  0  0  0  0  0  0  0  0
   -7.7863    2.0841    0.0000 C   0  0  0  0  0  0  0  0  0  0  0  0
   -6.4907    2.8401    0.0000 C   0  0  0  0  0  0  0  0  0  0  0  0
   -5.3714    1.8415    0.0000 C   0  0  0  0  0  0  0  0  0  0  0  0
  1  2  2  0
  2  3  1  0
  2 23  1  0
  3  4  1  0
  3  8  1  0
  4  5  1  0
  5  6  1  0
  6  7  1  0
  6  9  1  0
  7  8  1  0
  9 10  2  0
  9 11  2  0
  9 12  1  0
 12 13  2  0
 12 22  1  0
 13 14  1  0
 14 15  2  0
 15 16  1  0
 15 21  1  0
 16 17  1  0
 17 18  2  0
 17 19  1  0
 19 20  2  0
 19 21  1  0
 21 22  2  0
 23 24  1  0
 23 27  2  0
 24 25  1  0
 25 26  2  0
 26 27  1  0
M  END
>  <s_m_entry_id>  (351) 
800

>  <s_m_entry_name>  (351) 
3C-like_protease_GHDDI_ligprep.419

>  <s_m_Source_Path>  (351) 
/home/jgilaber/drug_learning/drug_learning/datasets/SAR1/GHDDI

>  <s_m_Source_File>  (351) 
3C-like_protease_GHDDI_ligprep.sdf

>  <i_m_Source_File_Index>  (351) 
419

>  <s_m_subgroup_title>  (351) 
3C-like_protease_GHDDI_ligprep

>  <s_m_subgroupid>  (351) 
3C-like_protease_GHDDI_ligprep

>  <b_m_subgroup_collapsed>  (351) 
0

$$$$
13838
     RDKit          2D

 33 37  0  0  1  0  0  0  0  0999 V2000
    2.6273    6.2629    0.0000 C   0  0  0  0  0  0  0  0  0  0  0  0
    3.1556    4.8590    0.0000 C   0  0  0  0  0  0  0  0  0  0  0  0
    2.2040    3.6996    0.0000 N   0  0  0  0  0  0  0  0  0  0  0  0
    2.5827    2.2481    0.0000 C   0  0  0  0  0  0  0  0  0  0  0  0
    3.9795    1.7014    0.0000 C   0  0  0  0  0  0  0  0  0  0  0  0
    4.2044    0.2184    0.0000 C   0  0  0  0  0  0  0  0  0  0  0  0
    3.1368   -0.8353    0.0000 N   0  0  0  0  0  0  0  0  0  0  0  0
    1.6568   -0.5909    0.0000 C   0  0  0  0  0  0  0  0  0  0  0  0
    0.7052   -1.7504    0.0000 C   0  0  0  0  0  0  0  0  0  0  0  0
    3.8090   -2.1763    0.0000 C   0  0  0  0  0  0  0  0  0  0  0  0
    3.2622   -3.5731    0.0000 C   0  0  0  0  0  0  0  0  0  0  0  0
    4.1985   -4.7450    0.0000 C   0  0  0  0  0  0  0  0  0  0  0  0
    5.6816   -4.5201    0.0000 C   0  0  0  0  0  0  0  0  0  0  0  0
    6.2283   -3.1233    0.0000 C   0  0  0  0  0  0  0  0  0  0  0  0
    5.2920   -1.9514    0.0000 C   0  0  0  0  0  0  0  0  0  0  0  0
    5.5364   -0.4714    0.0000 S   0  0  0  0  0  0  0  0  0  0  0  0
    1.3193    1.4395    0.0000 S   0  0  0  0  0  0  0  0  0  0  0  0
    0.1598    2.3911    0.0000 C   0  0  0  0  0  0  0  0  0  0  0  0
   -1.2916    2.0124    0.0000 C   0  0  0  0  0  0  0  0  0  0  0  0
   -1.6893    0.5661    0.0000 C   0  0  0  0  0  0  0  0  0  0  0  0
   -3.1407    0.1874    0.0000 C   0  0  0  0  0  0  0  0  0  0  0  0
   -4.3002    1.1390    0.0000 S   0  0  0  0  0  0  0  0  0  0  0  0
   -5.5636    0.3303    0.0000 C   0  0  0  0  0  0  0  0  0  0  0  0
   -7.0099    0.7281    0.0000 C   0  0  0  0  0  0  0  0  0  0  0  0
   -8.0775   -0.3256    0.0000 C   0  0  0  0  0  0  0  0  0  0  0  0
   -7.6988   -1.7770    0.0000 C   0  0  0  0  0  0  0  0  0  0  0  0
   -6.2525   -2.1747    0.0000 C   0  0  0  0  0  0  0  0  0  0  0  0
   -5.1849   -1.1211    0.0000 C   0  0  0  0  0  0  0  0  0  0  0  0
   -3.6875   -1.2094    0.0000 N   0  0  0  0  0  0  0  0  0  0  0  0
   -2.8788   -2.4728    0.0000 C   0  0  0  0  0  0  0  0  0  0  0  0
   -3.5686   -3.8048    0.0000 C   0  0  0  0  0  0  0  0  0  0  0  0
    0.7066    3.7879    0.0000 C   0  0  0  0  0  0  0  0  0  0  0  0
   -0.1021    5.0512    0.0000 O   0  0  0  0  0  0  0  0  0  0  0  0
  1  2  1  0
  2  3  1  0
  3  4  1  0
  3 32  1  0
  4  5  2  0
  4 17  1  0
  5  6  1  0
  6  7  2  0
  6 16  1  0
  7  8  1  0
  7 10  1  0
  8  9  1  0
 10 11  2  0
 10 15  1  0
 11 12  1  0
 12 13  2  0
 13 14  1  0
 14 15  2  0
 15 16  1  0
 17 18  1  0
 18 19  2  0
 18 32  1  0
 19 20  1  0
 20 21  1  0
 21 22  1  0
 21 29  2  0
 22 23  1  0
 23 24  2  0
 23 28  1  0
 24 25  1  0
 25 26  2  0
 26 27  1  0
 27 28  2  0
 28 29  1  0
 29 30  1  0
 30 31  1  0
 32 33  2  0
M  CHG  2   7   1  29   1
M  END
>  <s_m_entry_id>  (352) 
801

>  <s_m_entry_name>  (352) 
3C-like_protease_GHDDI_ligprep.420

>  <s_m_Source_Path>  (352) 
/home/jgilaber/drug_learning/drug_learning/datasets/SAR1/GHDDI

>  <s_m_Source_File>  (352) 
3C-like_protease_GHDDI_ligprep.sdf

>  <i_m_Source_File_Index>  (352) 
420

>  <s_m_subgroup_title>  (352) 
3C-like_protease_GHDDI_ligprep

>  <s_m_subgroupid>  (352) 
3C-like_protease_GHDDI_ligprep

>  <b_m_subgroup_collapsed>  (352) 
0

$$$$
13839
     RDKit          2D

 33 37  0  0  1  0  0  0  0  0999 V2000
    4.9708   -3.9971    0.0000 C   0  0  0  0  0  0  0  0  0  0  0  0
    3.8274   -3.0263    0.0000 C   0  0  0  0  0  0  0  0  0  0  0  0
    2.4149   -3.5311    0.0000 C   0  0  0  0  0  0  0  0  0  0  0  0
    4.0964   -1.5506    0.0000 C   0  0  0  0  0  0  0  0  0  0  0  0
    5.4484   -0.9009    0.0000 C   0  0  0  0  0  0  0  0  0  0  0  0
    5.2483    0.5857    0.0000 C   0  0  0  0  0  0  0  0  0  0  0  0
    3.7726    0.8547    0.0000 C   0  0  0  0  0  0  0  0  0  0  0  0
    2.9851    2.1314    0.0000 C   0  0  0  0  0  0  0  0  0  0  0  0
    1.4858    2.0878    0.0000 C   0  0  0  0  0  0  0  0  0  0  0  0
    0.7739    0.7674    0.0000 C   0  0  0  0  0  0  0  0  0  0  0  0
    0.3632    1.6618    0.0000 C   0  0  0  0  0  0  0  0  0  0  0  0
    1.5614   -0.5092    0.0000 C   0  0  0  0  0  0  0  0  0  0  0  0
    0.8495   -1.8295    0.0000 C   0  0  0  0  0  0  0  0  0  0  0  0
   -0.6499   -1.8732    0.0000 C   0  0  0  0  0  0  0  0  0  0  0  0
   -1.4374   -0.5965    0.0000 C   0  0  0  0  0  0  0  0  0  0  0  0
   -2.9367   -0.6402    0.0000 C   0  0  0  0  0  0  0  0  0  0  0  0
   -2.1493   -1.9168    0.0000 C   0  0  0  0  0  0  0  0  0  0  0  0
   -3.6486   -1.9605    0.0000 C   0  0  0  0  0  0  0  0  0  0  0  0
   -5.1480   -2.0041    0.0000 C   0  0  0  0  0  0  0  0  0  0  0  0
   -5.9355   -0.7275    0.0000 C   0  0  0  0  0  0  0  0  0  0  0  0
   -7.4348   -0.7711    0.0000 O   0  0  0  0  0  0  0  0  0  0  0  0
   -5.2236    0.5929    0.0000 C   0  0  0  0  0  0  0  0  0  0  0  0
   -5.0062    2.0770    0.0000 C   0  0  0  0  0  0  0  0  0  0  0  0
   -6.6475    1.0647    0.0000 C   0  0  0  0  0  0  0  0  0  0  0  0
   -3.7242    0.6365    0.0000 C   0  0  0  0  0  0  0  0  0  0  0  0
   -3.0123    1.9568    0.0000 C   0  0  0  0  0  0  0  0  0  0  0  0
   -1.5130    2.0005    0.0000 C   0  0  0  0  0  0  0  0  0  0  0  0
   -0.7255    0.7238    0.0000 C   0  0  0  0  0  0  0  0  0  0  0  0
   -0.3675    1.6405    0.0000 C   0  0  0  0  0  0  0  0  0  0  0  0
    3.0607   -0.4656    0.0000 C   0  0  0  0  0  0  0  0  0  0  0  0
    4.6186    2.0934    0.0000 C   0  0  0  0  0  0  0  0  0  0  0  0
    3.9689    3.4454    0.0000 O   0  0  0  0  0  0  0  0  0  0  0  0
    6.1143    1.9801    0.0000 O   0  0  0  0  0  0  0  0  0  0  0  0
  1  2  1  0
  2  3  2  0
  2  4  1  0
  4  5  1  0
  4 30  1  0
  5  6  1  0
  6  7  1  0
  7  8  1  0
  7 30  1  0
  7 31  1  0
  8  9  1  0
  9 10  1  0
 10 11  1  0
 10 12  1  0
 10 28  1  0
 12 13  1  0
 12 30  1  0
 13 14  1  0
 14 15  1  0
 15 16  1  0
 15 28  1  0
 16 17  1  0
 16 18  1  0
 16 25  1  0
 18 19  1  0
 19 20  1  0
 20 21  1  0
 20 22  1  0
 22 23  1  0
 22 24  1  0
 22 25  1  0
 25 26  1  0
 26 27  1  0
 27 28  1  0
 28 29  1  0
 31 32  2  0
 31 33  1  0
M  CHG  1  33  -1
M  END
>  <s_m_entry_id>  (353) 
802

>  <s_m_entry_name>  (353) 
3C-like_protease_GHDDI_ligprep.421

>  <s_m_Source_Path>  (353) 
/home/jgilaber/drug_learning/drug_learning/datasets/SAR1/GHDDI

>  <s_m_Source_File>  (353) 
3C-like_protease_GHDDI_ligprep.sdf

>  <i_m_Source_File_Index>  (353) 
421

>  <s_m_subgroup_title>  (353) 
3C-like_protease_GHDDI_ligprep

>  <s_m_subgroupid>  (353) 
3C-like_protease_GHDDI_ligprep

>  <b_m_subgroup_collapsed>  (353) 
0

$$$$
13841
     RDKit          2D

 33 36  0  0  1  0  0  0  0  0999 V2000
    8.2242   -3.7716    0.0000 C   0  0  0  0  0  0  0  0  0  0  0  0
    7.7194   -2.3591    0.0000 C   0  0  0  0  0  0  0  0  0  0  0  0
    8.6903   -1.2157    0.0000 C   0  0  0  0  0  0  0  0  0  0  0  0
    6.2437   -2.0900    0.0000 C   0  0  0  0  0  0  0  0  0  0  0  0
    5.7390   -0.6775    0.0000 O   0  0  0  0  0  0  0  0  0  0  0  0
    4.2633   -0.4084    0.0000 C   0  0  0  0  0  0  0  0  0  0  0  0
    3.2924   -1.5518    0.0000 O   0  0  0  0  0  0  0  0  0  0  0  0
    3.7585    1.0041    0.0000 N   0  0  0  0  0  0  0  0  0  0  0  0
    2.2828    1.2732    0.0000 C   0  0  0  0  0  0  0  0  0  0  0  0
    1.3120    0.1298    0.0000 C   0  0  0  0  0  0  0  0  0  0  0  0
   -0.1637    0.3989    0.0000 C   0  0  0  0  0  0  0  0  0  0  0  0
   -0.6685    1.8114    0.0000 C   0  0  0  0  0  0  0  0  0  0  0  0
    0.3024    2.9549    0.0000 C   0  0  0  0  0  0  0  0  0  0  0  0
    1.7781    2.6857    0.0000 C   0  0  0  0  0  0  0  0  0  0  0  0
   -2.1441    2.0805    0.0000 N   0  0  0  0  0  0  0  0  0  0  0  0
   -2.6489    3.4931    0.0000 C   0  0  0  0  0  0  0  0  0  0  0  0
   -1.6780    4.6365    0.0000 C   0  0  0  0  0  0  0  0  0  0  0  0
   -2.0324    6.0940    0.0000 C   0  0  0  0  0  0  0  0  0  0  0  0
   -0.7557    6.8814    0.0000 C   0  0  0  0  0  0  0  0  0  0  0  0
    0.3877    5.9106    0.0000 S   0  0  0  0  0  0  0  0  0  0  0  0
   -0.1823    4.5231    0.0000 C   0  0  0  0  0  0  0  0  0  0  0  0
   -3.1150    0.9371    0.0000 C   0  0  0  0  0  0  0  0  0  0  0  0
   -4.5907    1.2062    0.0000 O   0  0  0  0  0  0  0  0  0  0  0  0
   -2.6102   -0.4754    0.0000 C   0  0  0  0  0  0  0  0  0  0  0  0
   -3.5811   -1.6188    0.0000 N   0  0  0  0  0  0  0  0  0  0  0  0
   -5.0768   -1.5054    0.0000 N   0  0  0  0  0  0  0  0  0  0  0  0
   -5.6469   -2.8929    0.0000 N   0  0  0  0  0  0  0  0  0  0  0  0
   -4.5035   -3.8638    0.0000 C   0  0  0  0  0  0  0  0  0  0  0  0
   -4.4599   -5.3631    0.0000 C   0  0  0  0  0  0  0  0  0  0  0  0
   -3.1396   -6.0751    0.0000 C   0  0  0  0  0  0  0  0  0  0  0  0
   -1.8629   -5.2876    0.0000 C   0  0  0  0  0  0  0  0  0  0  0  0
   -1.9065   -3.7883    0.0000 C   0  0  0  0  0  0  0  0  0  0  0  0
   -3.2268   -3.0763    0.0000 C   0  0  0  0  0  0  0  0  0  0  0  0
  1  2  1  0
  2  3  1  0
  2  4  1  0
  4  5  1  0
  5  6  1  0
  6  7  2  0
  6  8  1  0
  8  9  1  0
  9 10  2  0
  9 14  1  0
 10 11  1  0
 11 12  2  0
 12 13  1  0
 12 15  1  0
 13 14  2  0
 15 16  1  0
 15 22  1  0
 16 17  1  0
 17 18  1  0
 17 21  2  0
 18 19  2  0
 19 20  1  0
 20 21  1  0
 22 23  2  0
 22 24  1  0
 24 25  1  0
 25 26  1  0
 25 33  1  0
 26 27  2  0
 27 28  1  0
 28 29  1  0
 28 33  2  0
 29 30  2  0
 30 31  1  0
 31 32  2  0
 32 33  1  0
M  END
>  <s_m_entry_id>  (354) 
835

>  <s_m_entry_name>  (354) 
3C-like_protease_GHDDI_ligprep.454

>  <s_m_Source_Path>  (354) 
/home/jgilaber/drug_learning/drug_learning/datasets/SAR1/GHDDI

>  <s_m_Source_File>  (354) 
3C-like_protease_GHDDI_ligprep.sdf

>  <i_m_Source_File_Index>  (354) 
454

>  <s_m_subgroup_title>  (354) 
3C-like_protease_GHDDI_ligprep

>  <s_m_subgroupid>  (354) 
3C-like_protease_GHDDI_ligprep

>  <b_m_subgroup_collapsed>  (354) 
0

$$$$
13842
     RDKit          2D

 25 30  0  0  1  0  0  0  0  0999 V2000
    1.4819    1.5033    0.0000 C   0  0  0  0  0  0  0  0  0  0  0  0
    0.3331    0.5389    0.0000 C   0  0  0  0  0  0  0  0  0  0  0  0
    0.8953   -0.8518    0.0000 C   0  0  0  0  0  0  0  0  0  0  0  0
    2.3916   -0.7468    0.0000 C   0  0  0  0  0  0  0  0  0  0  0  0
    3.6639   -1.5414    0.0000 S   0  0  0  0  0  0  0  0  0  0  0  0
    4.8127   -0.5770    0.0000 C   0  0  0  0  0  0  0  0  0  0  0  0
    6.2982   -0.7854    0.0000 C   0  0  0  0  0  0  0  0  0  0  0  0
    7.2214    0.3968    0.0000 C   0  0  0  0  0  0  0  0  0  0  0  0
    6.6592    1.7875    0.0000 C   0  0  0  0  0  0  0  0  0  0  0  0
    5.1737    1.9959    0.0000 C   0  0  0  0  0  0  0  0  0  0  0  0
    4.2505    0.8137    0.0000 C   0  0  0  0  0  0  0  0  0  0  0  0
    2.7542    0.7087    0.0000 N   0  0  0  0  0  0  0  0  0  0  0  0
    0.1007   -2.1240    0.0000 C   0  0  0  0  0  0  0  0  0  0  0  0
   -1.3984   -2.0720    0.0000 C   0  0  0  0  0  0  0  0  0  0  0  0
   -2.3216   -3.2542    0.0000 C   0  0  0  0  0  0  0  0  0  0  0  0
   -3.7313   -2.7415    0.0000 C   0  0  0  0  0  0  0  0  0  0  0  0
   -3.6792   -1.2424    0.0000 N   0  0  0  0  0  0  0  0  0  0  0  0
   -2.2374   -0.8286    0.0000 C   0  0  0  0  0  0  0  0  0  0  0  0
   -2.1854    0.6705    0.0000 S   0  0  0  0  0  0  0  0  0  0  0  0
   -3.5951    1.1832    0.0000 C   0  0  0  0  0  0  0  0  0  0  0  0
   -4.1573    2.5738    0.0000 C   0  0  0  0  0  0  0  0  0  0  0  0
   -5.6427    2.7823    0.0000 C   0  0  0  0  0  0  0  0  0  0  0  0
   -6.5660    1.6001    0.0000 C   0  0  0  0  0  0  0  0  0  0  0  0
   -6.0038    0.2094    0.0000 C   0  0  0  0  0  0  0  0  0  0  0  0
   -4.5183    0.0010    0.0000 C   0  0  0  0  0  0  0  0  0  0  0  0
  1  2  1  0
  1 12  1  0
  2  3  1  0
  3  4  2  0
  3 13  1  0
  4  5  1  0
  4 12  1  0
  5  6  1  0
  6  7  1  0
  6 11  2  0
  7  8  2  0
  8  9  1  0
  9 10  2  0
 10 11  1  0
 11 12  1  0
 13 14  2  0
 14 15  1  0
 14 18  1  0
 15 16  1  0
 16 17  1  0
 17 18  2  0
 17 25  1  0
 18 19  1  0
 19 20  1  0
 20 21  1  0
 20 25  2  0
 21 22  2  0
 22 23  1  0
 23 24  2  0
 24 25  1  0
M  CHG  1  17   1
M  END
>  <s_m_entry_id>  (355) 
836

>  <s_m_entry_name>  (355) 
3C-like_protease_GHDDI_ligprep.455

>  <s_m_Source_Path>  (355) 
/home/jgilaber/drug_learning/drug_learning/datasets/SAR1/GHDDI

>  <s_m_Source_File>  (355) 
3C-like_protease_GHDDI_ligprep.sdf

>  <i_m_Source_File_Index>  (355) 
455

>  <s_m_subgroup_title>  (355) 
3C-like_protease_GHDDI_ligprep

>  <s_m_subgroupid>  (355) 
3C-like_protease_GHDDI_ligprep

>  <b_m_subgroup_collapsed>  (355) 
0

$$$$
13843
     RDKit          2D

 21 23  0  0  1  0  0  0  0  0999 V2000
   -2.6245   -3.5656    0.0000 Br  0  0  0  0  0  0  0  0  0  0  0  0
   -3.3067   -2.2297    0.0000 C   0  0  0  0  0  0  0  0  0  0  0  0
   -4.8047   -2.1525    0.0000 C   0  0  0  0  0  0  0  0  0  0  0  0
   -5.4869   -0.8166    0.0000 N   0  0  0  0  0  0  0  0  0  0  0  0
   -4.6711    0.4421    0.0000 C   0  0  0  0  0  0  0  0  0  0  0  0
   -3.1730    0.3650    0.0000 C   0  0  0  0  0  0  0  0  0  0  0  0
   -2.4909   -0.9709    0.0000 C   0  0  0  0  0  0  0  0  0  0  0  0
   -2.3572    1.6237    0.0000 C   0  0  0  0  0  0  0  0  0  0  0  0
   -3.0394    2.9596    0.0000 O   0  0  0  0  0  0  0  0  0  0  0  0
   -0.8592    1.5465    0.0000 N   0  0  0  0  0  0  0  0  0  0  0  0
   -0.1770    0.2106    0.0000 C   0  0  0  0  0  0  0  0  0  0  0  0
    1.3210    0.1335    0.0000 C   0  0  0  0  0  0  0  0  0  0  0  0
    2.1368    1.3922    0.0000 N   0  0  0  0  0  0  0  0  0  0  0  0
    3.6349    1.3150    0.0000 C   0  0  0  0  0  0  0  0  0  0  0  0
    4.3170   -0.0209    0.0000 C   0  0  0  0  0  0  0  0  0  0  0  0
    5.7988   -0.2542    0.0000 C   0  0  0  0  0  0  0  0  0  0  0  0
    6.0347   -1.7355    0.0000 C   0  0  0  0  0  0  0  0  0  0  0  0
    4.6988   -2.4177    0.0000 S   0  0  0  0  0  0  0  0  0  0  0  0
    3.6372   -1.3580    0.0000 C   0  0  0  0  0  0  0  0  0  0  0  0
    1.4547    2.7281    0.0000 C   0  0  0  0  0  0  0  0  0  0  0  0
   -0.0433    2.8053    0.0000 C   0  0  0  0  0  0  0  0  0  0  0  0
  1  2  1  0
  2  3  2  0
  2  7  1  0
  3  4  1  0
  4  5  2  0
  5  6  1  0
  6  7  2  0
  6  8  1  0
  8  9  2  0
  8 10  1  0
 10 11  1  0
 10 21  1  0
 11 12  1  0
 12 13  1  0
 13 14  1  0
 13 20  1  0
 14 15  1  0
 15 16  1  0
 15 19  2  0
 16 17  2  0
 17 18  1  0
 18 19  1  0
 20 21  1  0
M  END
>  <s_m_entry_id>  (356) 
838

>  <s_m_entry_name>  (356) 
3C-like_protease_GHDDI_ligprep.457

>  <s_m_Source_Path>  (356) 
/home/jgilaber/drug_learning/drug_learning/datasets/SAR1/GHDDI

>  <s_m_Source_File>  (356) 
3C-like_protease_GHDDI_ligprep.sdf

>  <i_m_Source_File_Index>  (356) 
457

>  <s_m_subgroup_title>  (356) 
3C-like_protease_GHDDI_ligprep

>  <s_m_subgroupid>  (356) 
3C-like_protease_GHDDI_ligprep

>  <b_m_subgroup_collapsed>  (356) 
0

$$$$
13844
     RDKit          2D

 44 50  0  0  1  0  0  0  0  0999 V2000
  -10.6595    2.4740    0.0000 O   0  0  0  0  0  0  0  0  0  0  0  0
   -9.6611    1.3545    0.0000 C   0  0  0  0  0  0  0  0  0  0  0  0
  -10.1315   -0.0698    0.0000 C   0  0  0  0  0  0  0  0  0  0  0  0
   -9.1331   -1.1893    0.0000 C   0  0  0  0  0  0  0  0  0  0  0  0
   -9.6035   -2.6137    0.0000 O   0  0  0  0  0  0  0  0  0  0  0  0
   -7.6644   -0.8845    0.0000 C   0  0  0  0  0  0  0  0  0  0  0  0
   -7.1941    0.5399    0.0000 C   0  0  0  0  0  0  0  0  0  0  0  0
   -5.7254    0.8447    0.0000 O   0  0  0  0  0  0  0  0  0  0  0  0
   -4.7270   -0.2748    0.0000 C   0  0  0  0  0  0  0  0  0  0  0  0
   -5.1974   -1.6991    0.0000 C   0  0  0  0  0  0  0  0  0  0  0  0
   -6.6661   -2.0040    0.0000 O   0  0  0  0  0  0  0  0  0  0  0  0
   -4.1990   -2.8187    0.0000 C   0  0  0  0  0  0  0  0  0  0  0  0
   -2.7303   -2.5138    0.0000 C   0  0  0  0  0  0  0  0  0  0  0  0
   -1.7320   -3.6333    0.0000 O   0  0  0  0  0  0  0  0  0  0  0  0
   -2.2600   -1.0895    0.0000 C   0  0  0  0  0  0  0  0  0  0  0  0
   -0.7913   -0.7846    0.0000 O   0  0  0  0  0  0  0  0  0  0  0  0
   -0.3209    0.6397    0.0000 C   0  0  0  0  0  0  0  0  0  0  0  0
   -1.3193    1.7592    0.0000 C   0  0  0  0  0  0  0  0  0  0  0  0
   -2.7880    1.4544    0.0000 O   0  0  0  0  0  0  0  0  0  0  0  0
   -3.2583    0.0300    0.0000 C   0  0  0  0  0  0  0  0  0  0  0  0
   -0.8489    3.1836    0.0000 C   0  0  0  0  0  0  0  0  0  0  0  0
   -1.8473    4.3031    0.0000 O   0  0  0  0  0  0  0  0  0  0  0  0
    0.6198    3.4884    0.0000 C   0  0  0  0  0  0  0  0  0  0  0  0
    1.6181    2.3689    0.0000 C   0  0  0  0  0  0  0  0  0  0  0  0
    3.1181    2.3618    0.0000 O   0  0  0  0  0  0  0  0  0  0  0  0
    3.5748    0.9330    0.0000 C   0  0  0  0  0  0  0  0  0  0  0  0
    4.9422    0.3163    0.0000 C   0  0  0  0  0  0  0  0  0  0  0  0
    6.1599    1.1922    0.0000 O   0  0  0  0  0  0  0  0  0  0  0  0
    7.5273    0.5755    0.0000 C   0  0  0  0  0  0  0  0  0  0  0  0
    7.6769   -0.9170    0.0000 C   0  0  0  0  0  0  0  0  0  0  0  0
    9.0443   -1.5336    0.0000 C   0  0  0  0  0  0  0  0  0  0  0  0
    9.1940   -3.0261    0.0000 O   0  0  0  0  0  0  0  0  0  0  0  0
   10.2621   -0.6578    0.0000 C   0  0  0  0  0  0  0  0  0  0  0  0
   10.1124    0.8348    0.0000 C   0  0  0  0  0  0  0  0  0  0  0  0
   11.3301    1.7106    0.0000 O   0  0  0  0  0  0  0  0  0  0  0  0
    8.7450    1.4514    0.0000 C   0  0  0  0  0  0  0  0  0  0  0  0
    5.0918   -1.1762    0.0000 C   0  0  0  0  0  0  0  0  0  0  0  0
    6.4592   -1.7928    0.0000 O   0  0  0  0  0  0  0  0  0  0  0  0
    3.8741   -2.0520    0.0000 C   0  0  0  0  0  0  0  0  0  0  0  0
    2.5067   -1.4354    0.0000 C   0  0  0  0  0  0  0  0  0  0  0  0
    1.2890   -2.3113    0.0000 O   0  0  0  0  0  0  0  0  0  0  0  0
    2.3571    0.0571    0.0000 C   0  0  0  0  0  0  0  0  0  0  0  0
    1.1478    0.9446    0.0000 C   0  0  0  0  0  0  0  0  0  0  0  0
   -8.1924    1.6594    0.0000 C   0  0  0  0  0  0  0  0  0  0  0  0
  1  2  1  0
  2  3  2  0
  2 44  1  0
  3  4  1  0
  4  5  1  0
  4  6  2  0
  6  7  1  0
  7  8  1  0
  7 44  2  0
  8  9  1  0
  9 10  2  0
  9 20  1  0
 10 11  1  0
 10 12  1  0
 12 13  2  0
 13 14  1  0
 13 15  1  0
 15 16  1  0
 15 20  2  0
 16 17  1  0
 17 18  2  0
 17 43  1  0
 18 19  1  0
 18 21  1  0
 19 20  1  0
 21 22  1  0
 21 23  2  0
 23 24  1  0
 24 25  1  0
 24 43  2  0
 25 26  1  0
 26 27  1  0
 26 42  2  0
 27 28  1  0
 27 37  2  0
 28 29  1  0
 29 30  2  0
 29 36  1  0
 30 31  1  0
 31 32  1  0
 31 33  2  0
 33 34  1  0
 34 35  1  0
 34 36  2  0
 37 38  1  0
 37 39  1  0
 39 40  2  0
 40 41  1  0
 40 42  1  0
 42 43  1  0
M  END
>  <s_m_entry_id>  (357) 
840

>  <s_m_entry_name>  (357) 
3C-like_protease_GHDDI_ligprep.459

>  <s_m_Source_Path>  (357) 
/home/jgilaber/drug_learning/drug_learning/datasets/SAR1/GHDDI

>  <s_m_Source_File>  (357) 
3C-like_protease_GHDDI_ligprep.sdf

>  <i_m_Source_File_Index>  (357) 
459

>  <s_m_subgroup_title>  (357) 
3C-like_protease_GHDDI_ligprep

>  <s_m_subgroupid>  (357) 
3C-like_protease_GHDDI_ligprep

>  <b_m_subgroup_collapsed>  (357) 
0

$$$$
13847
     RDKit          2D

 34 38  0  0  1  0  0  0  0  0999 V2000
   -1.0310   -7.1698    0.0000 O   0  0  0  0  0  0  0  0  0  0  0  0
   -0.7705   -5.6926    0.0000 C   0  0  0  0  0  0  0  0  0  0  0  0
    0.6390   -5.1796    0.0000 O   0  0  0  0  0  0  0  0  0  0  0  0
   -1.9196   -4.7284    0.0000 C   0  0  0  0  0  0  0  0  0  0  0  0
   -3.3291   -5.2414    0.0000 C   0  0  0  0  0  0  0  0  0  0  0  0
   -4.4782   -4.2772    0.0000 C   0  0  0  0  0  0  0  0  0  0  0  0
   -4.2176   -2.8000    0.0000 C   0  0  0  0  0  0  0  0  0  0  0  0
   -2.8081   -2.2870    0.0000 C   0  0  0  0  0  0  0  0  0  0  0  0
   -1.6591   -3.2512    0.0000 C   0  0  0  0  0  0  0  0  0  0  0  0
   -2.5476   -0.8098    0.0000 N   0  0  0  0  0  0  0  0  0  0  0  0
   -3.5895    0.2692    0.0000 N   0  0  0  0  0  0  0  0  0  0  0  0
   -2.8853    1.5936    0.0000 C   0  0  0  0  0  0  0  0  0  0  0  0
   -1.4081    1.3331    0.0000 C   0  0  0  0  0  0  0  0  0  0  0  0
   -0.3291    2.3751    0.0000 C   0  0  0  0  0  0  0  0  0  0  0  0
    1.1128    1.9616    0.0000 C   0  0  0  0  0  0  0  0  0  0  0  0
    1.4757    0.5061    0.0000 C   0  0  0  0  0  0  0  0  0  0  0  0
    2.9175    0.0927    0.0000 C   0  0  0  0  0  0  0  0  0  0  0  0
    3.9966    1.1346    0.0000 C   0  0  0  0  0  0  0  0  0  0  0  0
    3.6337    2.5901    0.0000 C   0  0  0  0  0  0  0  0  0  0  0  0
    2.1919    3.0036    0.0000 C   0  0  0  0  0  0  0  0  0  0  0  0
    5.4385    0.7211    0.0000 C   0  0  0  0  0  0  0  0  0  0  0  0
    5.8013   -0.7343    0.0000 C   0  0  0  0  0  0  0  0  0  0  0  0
    7.2432   -1.1478    0.0000 C   0  0  0  0  0  0  0  0  0  0  0  0
    8.3222   -0.1059    0.0000 C   0  0  0  0  0  0  0  0  0  0  0  0
    7.9594    1.3496    0.0000 C   0  0  0  0  0  0  0  0  0  0  0  0
    6.5175    1.7631    0.0000 C   0  0  0  0  0  0  0  0  0  0  0  0
   -1.1994   -0.1523    0.0000 C   0  0  0  0  0  0  0  0  0  0  0  0
    0.1250   -0.8565    0.0000 O   0  0  0  0  0  0  0  0  0  0  0  0
   -3.5428    2.9419    0.0000 C   0  0  0  0  0  0  0  0  0  0  0  0
   -2.7040    4.1854    0.0000 C   0  0  0  0  0  0  0  0  0  0  0  0
   -3.3615    5.5336    0.0000 C   0  0  0  0  0  0  0  0  0  0  0  0
   -4.8579    5.6383    0.0000 C   0  0  0  0  0  0  0  0  0  0  0  0
   -5.6967    4.3947    0.0000 C   0  0  0  0  0  0  0  0  0  0  0  0
   -5.0392    3.0465    0.0000 C   0  0  0  0  0  0  0  0  0  0  0  0
  1  2  1  0
  2  3  2  0
  2  4  1  0
  4  5  2  0
  4  9  1  0
  5  6  1  0
  6  7  2  0
  7  8  1  0
  8  9  2  0
  8 10  1  0
 10 11  1  0
 10 27  1  0
 11 12  2  0
 12 13  1  0
 12 29  1  0
 13 14  2  0
 13 27  1  0
 14 15  1  0
 15 16  2  0
 15 20  1  0
 16 17  1  0
 17 18  2  0
 18 19  1  0
 18 21  1  0
 19 20  2  0
 21 22  2  0
 21 26  1  0
 22 23  1  0
 23 24  2  0
 24 25  1  0
 25 26  2  0
 27 28  2  0
 29 30  2  0
 29 34  1  0
 30 31  1  0
 31 32  2  0
 32 33  1  0
 33 34  2  0
M  CHG  1   1  -1
M  END
>  <s_m_entry_id>  (358) 
845

>  <s_m_entry_name>  (358) 
3C-like_protease_GHDDI_ligprep.464

>  <s_m_Source_Path>  (358) 
/home/jgilaber/drug_learning/drug_learning/datasets/SAR1/GHDDI

>  <s_m_Source_File>  (358) 
3C-like_protease_GHDDI_ligprep.sdf

>  <i_m_Source_File_Index>  (358) 
464

>  <s_m_subgroup_title>  (358) 
3C-like_protease_GHDDI_ligprep

>  <s_m_subgroupid>  (358) 
3C-like_protease_GHDDI_ligprep

>  <b_m_subgroup_collapsed>  (358) 
0

$$$$
13848
     RDKit          2D

 45 47  0  0  1  0  0  0  0  0999 V2000
   -9.0152   -0.2720    0.0000 C   0  0  0  0  0  0  0  0  0  0  0  0
   -8.0434   -1.4147    0.0000 C   0  0  0  0  0  0  0  0  0  0  0  0
   -6.5680   -1.1444    0.0000 O   0  0  0  0  0  0  0  0  0  0  0  0
   -5.5962   -2.2871    0.0000 C   0  0  0  0  0  0  0  0  0  0  0  0
   -6.0998   -3.7000    0.0000 O   0  0  0  0  0  0  0  0  0  0  0  0
   -4.1207   -2.0168    0.0000 C   0  0  0  0  0  0  0  0  0  0  0  0
   -3.1489   -3.1594    0.0000 C   0  0  0  0  0  0  0  0  0  0  0  0
   -1.6735   -2.8892    0.0000 C   0  0  0  0  0  0  0  0  0  0  0  0
   -0.7017   -4.0318    0.0000 C   0  0  0  0  0  0  0  0  0  0  0  0
    0.7737   -3.7615    0.0000 C   0  0  0  0  0  0  0  0  0  0  0  0
    1.7455   -4.9042    0.0000 C   0  0  0  0  0  0  0  0  0  0  0  0
    3.2210   -4.6339    0.0000 C   0  0  0  0  0  0  0  0  0  0  0  0
    3.7246   -3.2210    0.0000 C   0  0  0  0  0  0  0  0  0  0  0  0
    2.7529   -2.0783    0.0000 C   0  0  0  0  0  0  0  0  0  0  0  0
    1.2774   -2.3486    0.0000 C   0  0  0  0  0  0  0  0  0  0  0  0
   -1.1698   -1.4762    0.0000 N   0  0  0  0  0  0  0  0  0  0  0  0
   -2.1416   -0.3336    0.0000 C   0  0  0  0  0  0  0  0  0  0  0  0
   -3.6171   -0.6039    0.0000 O   0  0  0  0  0  0  0  0  0  0  0  0
   -1.6379    1.0793    0.0000 C   0  0  0  0  0  0  0  0  0  0  0  0
   -2.6097    2.2220    0.0000 C   0  0  0  0  0  0  0  0  0  0  0  0
   -4.0852    1.9517    0.0000 C   0  0  0  0  0  0  0  0  0  0  0  0
   -4.5888    0.5388    0.0000 C   0  0  0  0  0  0  0  0  0  0  0  0
   -6.0643    0.2685    0.0000 C   0  0  0  0  0  0  0  0  0  0  0  0
   -7.0361    1.4111    0.0000 C   0  0  0  0  0  0  0  0  0  0  0  0
   -8.5115    1.1409    0.0000 F   0  0  0  0  0  0  0  0  0  0  0  0
   -6.5324    2.8241    0.0000 C   0  0  0  0  0  0  0  0  0  0  0  0
   -5.0570    3.0943    0.0000 C   0  0  0  0  0  0  0  0  0  0  0  0
   -0.1625    1.3496    0.0000 N   0  0  0  0  0  0  0  0  0  0  0  0
    0.3412    2.7625    0.0000 C   0  0  0  0  0  0  0  0  0  0  0  0
   -0.6306    3.9051    0.0000 O   0  0  0  0  0  0  0  0  0  0  0  0
    1.8166    3.0328    0.0000 C   0  0  0  0  0  0  0  0  0  0  0  0
    2.7884    1.8901    0.0000 N   0  0  0  0  0  0  0  0  0  0  0  0
    4.2639    2.1604    0.0000 C   0  0  0  0  0  0  0  0  0  0  0  0
    4.7675    3.5733    0.0000 O   0  0  0  0  0  0  0  0  0  0  0  0
    5.2356    1.0177    0.0000 O   0  0  0  0  0  0  0  0  0  0  0  0
    6.7111    1.2880    0.0000 C   0  0  0  0  0  0  0  0  0  0  0  0
    7.6829    0.1454    0.0000 C   0  0  0  0  0  0  0  0  0  0  0  0
    7.1792   -1.2675    0.0000 C   0  0  0  0  0  0  0  0  0  0  0  0
    8.1510   -2.4102    0.0000 C   0  0  0  0  0  0  0  0  0  0  0  0
    9.6265   -2.1399    0.0000 C   0  0  0  0  0  0  0  0  0  0  0  0
   10.1301   -0.7270    0.0000 C   0  0  0  0  0  0  0  0  0  0  0  0
    9.1583    0.4156    0.0000 C   0  0  0  0  0  0  0  0  0  0  0  0
    2.3203    4.4457    0.0000 C   0  0  0  0  0  0  0  0  0  0  0  0
    3.7957    4.7159    0.0000 C   0  0  0  0  0  0  0  0  0  0  0  0
    1.3485    5.5883    0.0000 C   0  0  0  0  0  0  0  0  0  0  0  0
  1  2  1  0
  2  3  1  0
  3  4  1  0
  4  5  2  0
  4  6  1  0
  6  7  2  0
  7  8  1  0
  8  9  1  0
  8 16  1  0
  9 10  1  0
 10 11  2  0
 10 15  1  0
 11 12  1  0
 12 13  2  0
 13 14  1  0
 14 15  2  0
 16 17  1  0
 17 18  2  0
 17 19  1  0
 19 20  1  0
 19 28  1  0
 20 21  1  0
 21 22  2  0
 21 27  1  0
 22 23  1  0
 23 24  2  0
 24 25  1  0
 24 26  1  0
 26 27  2  0
 28 29  1  0
 29 30  2  0
 29 31  1  0
 31 32  1  0
 31 43  1  0
 32 33  1  0
 33 34  2  0
 33 35  1  0
 35 36  1  0
 36 37  1  0
 37 38  2  0
 37 42  1  0
 38 39  1  0
 39 40  2  0
 40 41  1  0
 41 42  2  0
 43 44  1  0
 43 45  1  0
M  END
>  <s_m_entry_id>  (359) 
846

>  <s_m_entry_name>  (359) 
3C-like_protease_GHDDI_ligprep.465

>  <s_m_Source_Path>  (359) 
/home/jgilaber/drug_learning/drug_learning/datasets/SAR1/GHDDI

>  <s_m_Source_File>  (359) 
3C-like_protease_GHDDI_ligprep.sdf

>  <i_m_Source_File_Index>  (359) 
465

>  <s_m_subgroup_title>  (359) 
3C-like_protease_GHDDI_ligprep

>  <s_m_subgroupid>  (359) 
3C-like_protease_GHDDI_ligprep

>  <b_m_subgroup_collapsed>  (359) 
0

$$$$
13849
     RDKit          2D

 44 46  0  0  1  0  0  0  0  0999 V2000
   -9.2109   -0.1359    0.0000 C   0  0  0  0  0  0  0  0  0  0  0  0
   -8.2529   -1.2901    0.0000 C   0  0  0  0  0  0  0  0  0  0  0  0
   -6.7743   -1.0375    0.0000 O   0  0  0  0  0  0  0  0  0  0  0  0
   -5.8163   -2.1917    0.0000 C   0  0  0  0  0  0  0  0  0  0  0  0
   -6.3368   -3.5985    0.0000 O   0  0  0  0  0  0  0  0  0  0  0  0
   -4.3377   -1.9391    0.0000 C   0  0  0  0  0  0  0  0  0  0  0  0
   -3.3796   -3.0933    0.0000 C   0  0  0  0  0  0  0  0  0  0  0  0
   -1.9011   -2.8407    0.0000 C   0  0  0  0  0  0  0  0  0  0  0  0
   -0.9430   -3.9949    0.0000 C   0  0  0  0  0  0  0  0  0  0  0  0
    0.5356   -3.7423    0.0000 C   0  0  0  0  0  0  0  0  0  0  0  0
    1.4936   -4.8965    0.0000 C   0  0  0  0  0  0  0  0  0  0  0  0
    2.9722   -4.6439    0.0000 C   0  0  0  0  0  0  0  0  0  0  0  0
    3.4927   -3.2371    0.0000 C   0  0  0  0  0  0  0  0  0  0  0  0
    2.5347   -2.0829    0.0000 C   0  0  0  0  0  0  0  0  0  0  0  0
    1.0561   -2.3355    0.0000 C   0  0  0  0  0  0  0  0  0  0  0  0
   -1.3805   -1.4339    0.0000 N   0  0  0  0  0  0  0  0  0  0  0  0
   -2.3386   -0.2797    0.0000 C   0  0  0  0  0  0  0  0  0  0  0  0
   -3.8171   -0.5323    0.0000 O   0  0  0  0  0  0  0  0  0  0  0  0
   -1.8180    1.1271    0.0000 C   0  0  0  0  0  0  0  0  0  0  0  0
   -2.7761    2.2813    0.0000 C   0  0  0  0  0  0  0  0  0  0  0  0
   -4.2547    2.0287    0.0000 C   0  0  0  0  0  0  0  0  0  0  0  0
   -4.7752    0.6219    0.0000 C   0  0  0  0  0  0  0  0  0  0  0  0
   -6.2538    0.3693    0.0000 C   0  0  0  0  0  0  0  0  0  0  0  0
   -7.2118    1.5235    0.0000 C   0  0  0  0  0  0  0  0  0  0  0  0
   -6.6913    2.9302    0.0000 C   0  0  0  0  0  0  0  0  0  0  0  0
   -5.2127    3.1828    0.0000 C   0  0  0  0  0  0  0  0  0  0  0  0
   -0.3395    1.3797    0.0000 N   0  0  0  0  0  0  0  0  0  0  0  0
    0.1811    2.7865    0.0000 C   0  0  0  0  0  0  0  0  0  0  0  0
   -0.7770    3.9406    0.0000 O   0  0  0  0  0  0  0  0  0  0  0  0
    1.6597    3.0391    0.0000 C   0  0  0  0  0  0  0  0  0  0  0  0
    2.6177    1.8849    0.0000 N   0  0  0  0  0  0  0  0  0  0  0  0
    4.0963    2.1375    0.0000 C   0  0  0  0  0  0  0  0  0  0  0  0
    4.6168    3.5443    0.0000 O   0  0  0  0  0  0  0  0  0  0  0  0
    5.0543    0.9833    0.0000 O   0  0  0  0  0  0  0  0  0  0  0  0
    6.5329    1.2359    0.0000 C   0  0  0  0  0  0  0  0  0  0  0  0
    7.4909    0.0817    0.0000 C   0  0  0  0  0  0  0  0  0  0  0  0
    6.9704   -1.3251    0.0000 C   0  0  0  0  0  0  0  0  0  0  0  0
    7.9285   -2.4793    0.0000 C   0  0  0  0  0  0  0  0  0  0  0  0
    9.4070   -2.2267    0.0000 C   0  0  0  0  0  0  0  0  0  0  0  0
    9.9276   -0.8199    0.0000 C   0  0  0  0  0  0  0  0  0  0  0  0
    8.9695    0.3343    0.0000 C   0  0  0  0  0  0  0  0  0  0  0  0
    2.1802    4.4458    0.0000 C   0  0  0  0  0  0  0  0  0  0  0  0
    3.6588    4.6984    0.0000 C   0  0  0  0  0  0  0  0  0  0  0  0
    1.2221    5.6000    0.0000 C   0  0  0  0  0  0  0  0  0  0  0  0
  1  2  1  0
  2  3  1  0
  3  4  1  0
  4  5  2  0
  4  6  1  0
  6  7  2  0
  7  8  1  0
  8  9  1  0
  8 16  1  0
  9 10  1  0
 10 11  2  0
 10 15  1  0
 11 12  1  0
 12 13  2  0
 13 14  1  0
 14 15  2  0
 16 17  1  0
 17 18  2  0
 17 19  1  0
 19 20  1  0
 19 27  1  0
 20 21  1  0
 21 22  2  0
 21 26  1  0
 22 23  1  0
 23 24  2  0
 24 25  1  0
 25 26  2  0
 27 28  1  0
 28 29  2  0
 28 30  1  0
 30 31  1  0
 30 42  1  0
 31 32  1  0
 32 33  2  0
 32 34  1  0
 34 35  1  0
 35 36  1  0
 36 37  2  0
 36 41  1  0
 37 38  1  0
 38 39  2  0
 39 40  1  0
 40 41  2  0
 42 43  1  0
 42 44  1  0
M  END
>  <s_m_entry_id>  (360) 
847

>  <s_m_entry_name>  (360) 
3C-like_protease_GHDDI_ligprep.466

>  <s_m_Source_Path>  (360) 
/home/jgilaber/drug_learning/drug_learning/datasets/SAR1/GHDDI

>  <s_m_Source_File>  (360) 
3C-like_protease_GHDDI_ligprep.sdf

>  <i_m_Source_File_Index>  (360) 
466

>  <s_m_subgroup_title>  (360) 
3C-like_protease_GHDDI_ligprep

>  <s_m_subgroupid>  (360) 
3C-like_protease_GHDDI_ligprep

>  <b_m_subgroup_collapsed>  (360) 
0

$$$$
13851
     RDKit          2D

 38 41  0  0  1  0  0  0  0  0999 V2000
    4.2458   -7.4524    0.0000 C   0  0  0  0  0  0  0  0  0  0  0  0
    3.4570   -6.1765    0.0000 C   0  0  0  0  0  0  0  0  0  0  0  0
    1.9577   -6.2218    0.0000 O   0  0  0  0  0  0  0  0  0  0  0  0
    4.1675   -4.8555    0.0000 N   0  0  0  0  0  0  0  0  0  0  0  0
    3.3787   -3.5796    0.0000 C   0  0  0  0  0  0  0  0  0  0  0  0
    1.8794   -3.6249    0.0000 C   0  0  0  0  0  0  0  0  0  0  0  0
    1.0905   -2.3490    0.0000 C   0  0  0  0  0  0  0  0  0  0  0  0
    1.8011   -1.0280    0.0000 C   0  0  0  0  0  0  0  0  0  0  0  0
    3.3004   -0.9828    0.0000 C   0  0  0  0  0  0  0  0  0  0  0  0
    4.0892   -2.2586    0.0000 C   0  0  0  0  0  0  0  0  0  0  0  0
    1.0122    0.2479    0.0000 N   0  0  0  0  0  0  0  0  0  0  0  0
    1.7228    1.5689    0.0000 C   0  0  0  0  0  0  0  0  0  0  0  0
    3.2221    1.6141    0.0000 C   0  0  0  0  0  0  0  0  0  0  0  0
    4.0109    0.3383    0.0000 O   0  0  0  0  0  0  0  0  0  0  0  0
    3.9326    2.9352    0.0000 N   0  0  0  0  0  0  0  0  0  0  0  0
    5.4319    2.9804    0.0000 C   0  0  0  0  0  0  0  0  0  0  0  0
    5.3867    4.4797    0.0000 C   0  0  0  0  0  0  0  0  0  0  0  0
    5.4771    1.4811    0.0000 C   0  0  0  0  0  0  0  0  0  0  0  0
    6.9312    3.0256    0.0000 C   0  0  0  0  0  0  0  0  0  0  0  0
    0.9339    2.8448    0.0000 C   0  0  0  0  0  0  0  0  0  0  0  0
   -0.5619    2.9565    0.0000 C   0  0  0  0  0  0  0  0  0  0  0  0
   -0.9178    4.4137    0.0000 C   0  0  0  0  0  0  0  0  0  0  0  0
    0.3580    5.2025    0.0000 S   0  0  0  0  0  0  0  0  0  0  0  0
    1.5025    4.2329    0.0000 C   0  0  0  0  0  0  0  0  0  0  0  0
   -0.4871    0.2027    0.0000 C   0  0  0  0  0  0  0  0  0  0  0  0
   -1.1976   -1.1184    0.0000 O   0  0  0  0  0  0  0  0  0  0  0  0
   -1.2759    1.4785    0.0000 C   0  0  0  0  0  0  0  0  0  0  0  0
   -2.7752    1.4333    0.0000 N   0  0  0  0  0  0  0  0  0  0  0  0
   -3.6199    0.1938    0.0000 C   0  0  0  0  0  0  0  0  0  0  0  0
   -5.0598    0.6141    0.0000 C   0  0  0  0  0  0  0  0  0  0  0  0
   -5.1050    2.1134    0.0000 N   0  0  0  0  0  0  0  0  0  0  0  0
   -3.6931    2.6197    0.0000 N   0  0  0  0  0  0  0  0  0  0  0  0
   -6.2462   -0.3038    0.0000 C   0  0  0  0  0  0  0  0  0  0  0  0
   -7.6343    0.2648    0.0000 C   0  0  0  0  0  0  0  0  0  0  0  0
   -8.8207   -0.6531    0.0000 C   0  0  0  0  0  0  0  0  0  0  0  0
   -8.6190   -2.1395    0.0000 C   0  0  0  0  0  0  0  0  0  0  0  0
   -7.2309   -2.7080    0.0000 C   0  0  0  0  0  0  0  0  0  0  0  0
   -6.0445   -1.7902    0.0000 C   0  0  0  0  0  0  0  0  0  0  0  0
  1  2  1  0
  2  3  2  0
  2  4  1  0
  4  5  1  0
  5  6  2  0
  5 10  1  0
  6  7  1  0
  7  8  2  0
  8  9  1  0
  8 11  1  0
  9 10  2  0
 11 12  1  0
 11 25  1  0
 12 13  1  0
 12 20  1  0
 13 14  2  0
 13 15  1  0
 15 16  1  0
 16 17  1  0
 16 18  1  0
 16 19  1  0
 20 21  1  0
 20 24  2  0
 21 22  2  0
 22 23  1  0
 23 24  1  0
 25 26  2  0
 25 27  1  0
 27 28  1  0
 28 29  1  0
 28 32  1  0
 29 30  2  0
 30 31  1  0
 30 33  1  0
 31 32  2  0
 33 34  2  0
 33 38  1  0
 34 35  1  0
 35 36  2  0
 36 37  1  0
 37 38  2  0
M  END
>  <s_m_entry_id>  (361) 
850

>  <s_m_entry_name>  (361) 
3C-like_protease_GHDDI_ligprep.469

>  <s_m_Source_Path>  (361) 
/home/jgilaber/drug_learning/drug_learning/datasets/SAR1/GHDDI

>  <s_m_Source_File>  (361) 
3C-like_protease_GHDDI_ligprep.sdf

>  <i_m_Source_File_Index>  (361) 
469

>  <s_m_subgroup_title>  (361) 
3C-like_protease_GHDDI_ligprep

>  <s_m_subgroupid>  (361) 
3C-like_protease_GHDDI_ligprep

>  <b_m_subgroup_collapsed>  (361) 
0

$$$$
13852
     RDKit          2D

 14 15  0  0  1  0  0  0  0  0999 V2000
   -2.4809   -2.5504    0.0000 N   0  0  0  0  0  0  0  0  0  0  0  0
   -2.3309   -1.0579    0.0000 C   0  0  0  0  0  0  0  0  0  0  0  0
   -3.5484   -0.1817    0.0000 N   0  0  0  0  0  0  0  0  0  0  0  0
   -3.3984    1.3108    0.0000 C   0  0  0  0  0  0  0  0  0  0  0  0
   -2.0309    1.9271    0.0000 N   0  0  0  0  0  0  0  0  0  0  0  0
   -0.8133    1.0509    0.0000 C   0  0  0  0  0  0  0  0  0  0  0  0
    0.6525    1.3694    0.0000 N   0  0  0  0  0  0  0  0  0  0  0  0
    1.4083    0.0738    0.0000 C   0  0  0  0  0  0  0  0  0  0  0  0
    0.4097   -1.0455    0.0000 N   0  0  0  0  0  0  0  0  0  0  0  0
   -0.9634   -0.4416    0.0000 C   0  0  0  0  0  0  0  0  0  0  0  0
    2.9008   -0.0762    0.0000 C   0  0  0  0  0  0  0  0  0  0  0  0
    4.3933   -0.2263    0.0000 F   0  0  0  0  0  0  0  0  0  0  0  0
    2.7508   -1.5687    0.0000 F   0  0  0  0  0  0  0  0  0  0  0  0
    3.0508    1.4162    0.0000 F   0  0  0  0  0  0  0  0  0  0  0  0
  1  2  1  0
  2  3  2  0
  2 10  1  0
  3  4  1  0
  4  5  2  0
  5  6  1  0
  6  7  1  0
  6 10  2  0
  7  8  2  0
  8  9  1  0
  8 11  1  0
  9 10  1  0
 11 12  1  0
 11 13  1  0
 11 14  1  0
M  END
>  <s_m_entry_id>  (362) 
852

>  <s_m_entry_name>  (362) 
3C-like_protease_GHDDI_ligprep.471

>  <s_m_Source_Path>  (362) 
/home/jgilaber/drug_learning/drug_learning/datasets/SAR1/GHDDI

>  <s_m_Source_File>  (362) 
3C-like_protease_GHDDI_ligprep.sdf

>  <i_m_Source_File_Index>  (362) 
471

>  <s_m_subgroup_title>  (362) 
3C-like_protease_GHDDI_ligprep

>  <s_m_subgroupid>  (362) 
3C-like_protease_GHDDI_ligprep

>  <b_m_subgroup_collapsed>  (362) 
0

$$$$
13853
     RDKit          2D

 22 24  0  0  1  0  0  0  0  0999 V2000
   -7.3481    0.5542    0.0000 C   0  0  0  0  0  0  0  0  0  0  0  0
   -5.8625    0.3468    0.0000 N   0  0  0  0  0  0  0  0  0  0  0  0
   -4.9401    1.5297    0.0000 C   0  0  0  0  0  0  0  0  0  0  0  0
   -3.4545    1.3224    0.0000 C   0  0  0  0  0  0  0  0  0  0  0  0
   -2.8913   -0.0679    0.0000 N   0  0  0  0  0  0  0  0  0  0  0  0
   -3.8137   -1.2508    0.0000 C   0  0  0  0  0  0  0  0  0  0  0  0
   -5.2993   -1.0434    0.0000 C   0  0  0  0  0  0  0  0  0  0  0  0
   -1.4057   -0.2752    0.0000 S   0  0  0  0  0  0  0  0  0  0  0  0
   -1.1984    1.2104    0.0000 O   0  0  0  0  0  0  0  0  0  0  0  0
   -1.6131   -1.7608    0.0000 O   0  0  0  0  0  0  0  0  0  0  0  0
    0.0799   -0.4826    0.0000 C   0  0  0  0  0  0  0  0  0  0  0  0
    0.6431   -1.8728    0.0000 C   0  0  0  0  0  0  0  0  0  0  0  0
    2.1287   -2.0802    0.0000 C   0  0  0  0  0  0  0  0  0  0  0  0
    3.0511   -0.8973    0.0000 C   0  0  0  0  0  0  0  0  0  0  0  0
    4.5473   -0.7912    0.0000 N   0  0  0  0  0  0  0  0  0  0  0  0
    5.5126   -1.9394    0.0000 C   0  0  0  0  0  0  0  0  0  0  0  0
    4.9088    0.6646    0.0000 C   0  0  0  0  0  0  0  0  0  0  0  0
    6.2991    1.2278    0.0000 O   0  0  0  0  0  0  0  0  0  0  0  0
    3.6360    1.4582    0.0000 C   0  0  0  0  0  0  0  0  0  0  0  0
    3.5300    2.9545    0.0000 O   0  0  0  0  0  0  0  0  0  0  0  0
    2.4879    0.4930    0.0000 C   0  0  0  0  0  0  0  0  0  0  0  0
    1.0023    0.7003    0.0000 C   0  0  0  0  0  0  0  0  0  0  0  0
  1  2  1  0
  2  3  1  0
  2  7  1  0
  3  4  1  0
  4  5  1  0
  5  6  1  0
  5  8  1  0
  6  7  1  0
  8  9  2  0
  8 10  2  0
  8 11  1  0
 11 12  2  0
 11 22  1  0
 12 13  1  0
 13 14  2  0
 14 15  1  0
 14 21  1  0
 15 16  1  0
 15 17  1  0
 17 18  2  0
 17 19  1  0
 19 20  2  0
 19 21  1  0
 21 22  2  0
M  END
>  <s_m_entry_id>  (363) 
853

>  <s_m_entry_name>  (363) 
3C-like_protease_GHDDI_ligprep.472

>  <s_m_Source_Path>  (363) 
/home/jgilaber/drug_learning/drug_learning/datasets/SAR1/GHDDI

>  <s_m_Source_File>  (363) 
3C-like_protease_GHDDI_ligprep.sdf

>  <i_m_Source_File_Index>  (363) 
472

>  <s_m_subgroup_title>  (363) 
3C-like_protease_GHDDI_ligprep

>  <s_m_subgroupid>  (363) 
3C-like_protease_GHDDI_ligprep

>  <b_m_subgroup_collapsed>  (363) 
0

$$$$
13854
     RDKit          2D

 27 30  0  0  1  0  0  0  0  0999 V2000
   -1.9248   -2.6662    0.0000 O   0  0  0  0  0  0  0  0  0  0  0  0
   -1.7004   -1.1831    0.0000 C   0  0  0  0  0  0  0  0  0  0  0  0
   -0.3038   -0.6358    0.0000 C   0  0  0  0  0  0  0  0  0  0  0  0
    0.8684   -1.5717    0.0000 C   0  0  0  0  0  0  0  0  0  0  0  0
    2.2650   -1.0244    0.0000 C   0  0  0  0  0  0  0  0  0  0  0  0
    2.4893    0.4588    0.0000 N   0  0  0  0  0  0  0  0  0  0  0  0
    3.8859    1.0061    0.0000 C   0  0  0  0  0  0  0  0  0  0  0  0
    5.0582    0.0702    0.0000 C   0  0  0  0  0  0  0  0  0  0  0  0
    4.8339   -1.4129    0.0000 C   0  0  0  0  0  0  0  0  0  0  0  0
    6.0061   -2.3488    0.0000 C   0  0  0  0  0  0  0  0  0  0  0  0
    7.4027   -1.8015    0.0000 C   0  0  0  0  0  0  0  0  0  0  0  0
    7.6271   -0.3183    0.0000 C   0  0  0  0  0  0  0  0  0  0  0  0
    6.4548    0.6175    0.0000 C   0  0  0  0  0  0  0  0  0  0  0  0
    1.3171    1.3946    0.0000 C   0  0  0  0  0  0  0  0  0  0  0  0
    1.5414    2.8777    0.0000 O   0  0  0  0  0  0  0  0  0  0  0  0
   -0.0795    0.8473    0.0000 C   0  0  0  0  0  0  0  0  0  0  0  0
   -1.2518    1.7832    0.0000 C   0  0  0  0  0  0  0  0  0  0  0  0
   -2.6484    1.2359    0.0000 N   0  0  0  0  0  0  0  0  0  0  0  0
   -2.8727   -0.2473    0.0000 C   0  0  0  0  0  0  0  0  0  0  0  0
   -4.2693   -0.7946    0.0000 C   0  0  0  0  0  0  0  0  0  0  0  0
   -4.4936   -2.2777    0.0000 O   0  0  0  0  0  0  0  0  0  0  0  0
   -5.4416    0.1413    0.0000 N   0  0  0  0  0  0  0  0  0  0  0  0
   -6.8382   -0.4060    0.0000 C   0  0  0  0  0  0  0  0  0  0  0  0
   -7.7740   -1.5783    0.0000 C   0  0  0  0  0  0  0  0  0  0  0  0
   -8.3213   -0.1817    0.0000 C   0  0  0  0  0  0  0  0  0  0  0  0
   -1.0275    3.2663    0.0000 C   0  0  0  0  0  0  0  0  0  0  0  0
   -0.8031    4.7494    0.0000 N   0  0  0  0  0  0  0  0  0  0  0  0
  1  2  1  0
  2  3  2  0
  2 19  1  0
  3  4  1  0
  3 16  1  0
  4  5  2  0
  5  6  1  0
  6  7  1  0
  6 14  1  0
  7  8  1  0
  8  9  2  0
  8 13  1  0
  9 10  1  0
 10 11  2  0
 11 12  1  0
 12 13  2  0
 14 15  2  0
 14 16  1  0
 16 17  2  0
 17 18  1  0
 17 26  1  0
 18 19  2  0
 19 20  1  0
 20 21  2  0
 20 22  1  0
 22 23  1  0
 23 24  1  0
 23 25  1  0
 24 25  1  0
 26 27  3  0
M  CHG  1   1  -1
M  END
>  <s_m_entry_id>  (364) 
855

>  <s_m_entry_name>  (364) 
3C-like_protease_GHDDI_ligprep.474

>  <s_m_Source_Path>  (364) 
/home/jgilaber/drug_learning/drug_learning/datasets/SAR1/GHDDI

>  <s_m_Source_File>  (364) 
3C-like_protease_GHDDI_ligprep.sdf

>  <i_m_Source_File_Index>  (364) 
474

>  <s_m_subgroup_title>  (364) 
3C-like_protease_GHDDI_ligprep

>  <s_m_subgroupid>  (364) 
3C-like_protease_GHDDI_ligprep

>  <b_m_subgroup_collapsed>  (364) 
0

$$$$
13855
     RDKit          2D

 24 25  0  0  1  0  0  0  0  0999 V2000
   -6.7120   -3.0999    0.0000 C   0  0  0  0  0  0  0  0  0  0  0  0
   -5.2408   -2.8075    0.0000 C   0  0  0  0  0  0  0  0  0  0  0  0
   -4.7584   -1.3872    0.0000 C   0  0  0  0  0  0  0  0  0  0  0  0
   -3.2872   -1.0948    0.0000 C   0  0  0  0  0  0  0  0  0  0  0  0
   -2.8048    0.3255    0.0000 C   0  0  0  0  0  0  0  0  0  0  0  0
   -3.7936    1.4535    0.0000 C   0  0  0  0  0  0  0  0  0  0  0  0
   -5.2648    1.1611    0.0000 O   0  0  0  0  0  0  0  0  0  0  0  0
   -3.3112    2.8738    0.0000 C   0  0  0  0  0  0  0  0  0  0  0  0
   -1.8400    3.1662    0.0000 C   0  0  0  0  0  0  0  0  0  0  0  0
   -0.8511    2.0383    0.0000 C   0  0  0  0  0  0  0  0  0  0  0  0
    0.6201    2.3306    0.0000 C   0  0  0  0  0  0  0  0  0  0  0  0
    1.1025    3.7510    0.0000 O   0  0  0  0  0  0  0  0  0  0  0  0
    1.6089    1.2027    0.0000 C   0  0  0  0  0  0  0  0  0  0  0  0
    3.0801    1.4951    0.0000 C   0  0  0  0  0  0  0  0  0  0  0  0
    4.0690    0.3672    0.0000 C   0  0  0  0  0  0  0  0  0  0  0  0
    3.5866   -1.0531    0.0000 C   0  0  0  0  0  0  0  0  0  0  0  0
    4.5754   -2.1810    0.0000 C   0  0  0  0  0  0  0  0  0  0  0  0
    6.0466   -1.8887    0.0000 C   0  0  0  0  0  0  0  0  0  0  0  0
    7.0355   -3.0166    0.0000 O   0  0  0  0  0  0  0  0  0  0  0  0
    6.5290   -0.4683    0.0000 C   0  0  0  0  0  0  0  0  0  0  0  0
    5.5402    0.6596    0.0000 C   0  0  0  0  0  0  0  0  0  0  0  0
   -1.3335    0.6179    0.0000 C   0  0  0  0  0  0  0  0  0  0  0  0
   -0.3447   -0.5100    0.0000 O   0  0  0  0  0  0  0  0  0  0  0  0
   -4.2519   -3.9354    0.0000 C   0  0  0  0  0  0  0  0  0  0  0  0
  1  2  1  0
  2  3  2  3
  2 24  1  0
  3  4  1  0
  4  5  1  0
  5  6  2  0
  5 22  1  0
  6  7  1  0
  6  8  1  0
  8  9  2  0
  9 10  1  0
 10 11  1  0
 10 22  2  0
 11 12  2  0
 11 13  1  0
 13 14  2  0
 14 15  1  0
 15 16  2  0
 15 21  1  0
 16 17  1  0
 17 18  2  0
 18 19  1  0
 18 20  1  0
 20 21  2  0
 22 23  1  0
M  END
>  <s_m_entry_id>  (365) 
856

>  <s_m_entry_name>  (365) 
3C-like_protease_GHDDI_ligprep.475

>  <s_m_Source_Path>  (365) 
/home/jgilaber/drug_learning/drug_learning/datasets/SAR1/GHDDI

>  <s_m_Source_File>  (365) 
3C-like_protease_GHDDI_ligprep.sdf

>  <i_m_Source_File_Index>  (365) 
475

>  <s_m_subgroup_title>  (365) 
3C-like_protease_GHDDI_ligprep

>  <s_m_subgroupid>  (365) 
3C-like_protease_GHDDI_ligprep

>  <b_m_subgroup_collapsed>  (365) 
0

$$$$
13856
     RDKit          2D

 34 38  0  0  1  0  0  0  0  0999 V2000
   -5.6410   -3.6816    0.0000 O   0  0  0  0  0  0  0  0  0  0  0  0
   -4.8044   -2.4366    0.0000 C   0  0  0  0  0  0  0  0  0  0  0  0
   -3.3079   -2.5385    0.0000 O   0  0  0  0  0  0  0  0  0  0  0  0
   -5.4644   -1.0896    0.0000 C   0  0  0  0  0  0  0  0  0  0  0  0
   -6.9610   -0.9876    0.0000 C   0  0  0  0  0  0  0  0  0  0  0  0
   -7.6210    0.3594    0.0000 C   0  0  0  0  0  0  0  0  0  0  0  0
   -6.7844    1.6044    0.0000 C   0  0  0  0  0  0  0  0  0  0  0  0
   -7.4444    2.9514    0.0000 Cl  0  0  0  0  0  0  0  0  0  0  0  0
   -5.2879    1.5025    0.0000 C   0  0  0  0  0  0  0  0  0  0  0  0
   -4.6279    0.1555    0.0000 C   0  0  0  0  0  0  0  0  0  0  0  0
   -3.1314    0.0536    0.0000 C   0  0  0  0  0  0  0  0  0  0  0  0
   -2.1693    1.2044    0.0000 O   0  0  0  0  0  0  0  0  0  0  0  0
   -0.7775    0.6450    0.0000 C   0  0  0  0  0  0  0  0  0  0  0  0
    0.4932    1.4422    0.0000 C   0  0  0  0  0  0  0  0  0  0  0  0
    1.8189    0.7404    0.0000 C   0  0  0  0  0  0  0  0  0  0  0  0
    2.0303   -0.7447    0.0000 C   0  0  0  0  0  0  0  0  0  0  0  0
    0.9532   -1.7886    0.0000 O   0  0  0  0  0  0  0  0  0  0  0  0
    3.5080   -1.0025    0.0000 N   0  0  0  0  0  0  0  0  0  0  0  0
    4.2098    0.3232    0.0000 N   0  0  0  0  0  0  0  0  0  0  0  0
    3.1659    1.4004    0.0000 C   0  0  0  0  0  0  0  0  0  0  0  0
    3.4237    2.8780    0.0000 C   0  0  0  0  0  0  0  0  0  0  0  0
    4.8323    3.3936    0.0000 C   0  0  0  0  0  0  0  0  0  0  0  0
    5.0901    4.8713    0.0000 C   0  0  0  0  0  0  0  0  0  0  0  0
    3.9393    5.8334    0.0000 C   0  0  0  0  0  0  0  0  0  0  0  0
    2.5307    5.3178    0.0000 C   0  0  0  0  0  0  0  0  0  0  0  0
    2.2729    3.8401    0.0000 C   0  0  0  0  0  0  0  0  0  0  0  0
    4.1680   -2.3495    0.0000 C   0  0  0  0  0  0  0  0  0  0  0  0
    3.3314   -3.5945    0.0000 C   0  0  0  0  0  0  0  0  0  0  0  0
    3.9914   -4.9415    0.0000 C   0  0  0  0  0  0  0  0  0  0  0  0
    5.4880   -5.0435    0.0000 C   0  0  0  0  0  0  0  0  0  0  0  0
    6.3245   -3.7984    0.0000 C   0  0  0  0  0  0  0  0  0  0  0  0
    5.6645   -2.4514    0.0000 C   0  0  0  0  0  0  0  0  0  0  0  0
   -0.8794   -0.8515    0.0000 C   0  0  0  0  0  0  0  0  0  0  0  0
   -2.3342   -1.2170    0.0000 C   0  0  0  0  0  0  0  0  0  0  0  0
  1  2  1  0
  2  3  2  0
  2  4  1  0
  4  5  2  0
  4 10  1  0
  5  6  1  0
  6  7  2  0
  7  8  1  0
  7  9  1  0
  9 10  2  0
 10 11  1  0
 11 12  1  0
 11 34  2  0
 12 13  1  0
 13 14  1  0
 13 33  2  0
 14 15  2  0
 15 16  1  0
 15 20  1  0
 16 17  2  0
 16 18  1  0
 18 19  1  0
 18 27  1  0
 19 20  2  0
 20 21  1  0
 21 22  2  0
 21 26  1  0
 22 23  1  0
 23 24  2  0
 24 25  1  0
 25 26  2  0
 27 28  2  0
 27 32  1  0
 28 29  1  0
 29 30  2  0
 30 31  1  0
 31 32  2  0
 33 34  1  0
M  CHG  1   1  -1
M  END
>  <s_m_entry_id>  (366) 
858

>  <s_m_entry_name>  (366) 
3C-like_protease_GHDDI_ligprep.477

>  <s_m_Source_Path>  (366) 
/home/jgilaber/drug_learning/drug_learning/datasets/SAR1/GHDDI

>  <s_m_Source_File>  (366) 
3C-like_protease_GHDDI_ligprep.sdf

>  <i_m_Source_File_Index>  (366) 
477

>  <s_m_subgroup_title>  (366) 
3C-like_protease_GHDDI_ligprep

>  <s_m_subgroupid>  (366) 
3C-like_protease_GHDDI_ligprep

>  <b_m_subgroup_collapsed>  (366) 
0

$$$$
13857
     RDKit          2D

 33 37  0  0  1  0  0  0  0  0999 V2000
    7.2421   -5.0620    0.0000 C   0  0  0  0  0  0  0  0  0  0  0  0
    7.3598   -3.5666    0.0000 O   0  0  0  0  0  0  0  0  0  0  0  0
    6.1236   -2.7170    0.0000 C   0  0  0  0  0  0  0  0  0  0  0  0
    4.7697   -3.3628    0.0000 N   0  0  0  0  0  0  0  0  0  0  0  0
    3.5335   -2.5132    0.0000 C   0  0  0  0  0  0  0  0  0  0  0  0
    3.6512   -1.0179    0.0000 C   0  0  0  0  0  0  0  0  0  0  0  0
    5.0050   -0.3721    0.0000 C   0  0  0  0  0  0  0  0  0  0  0  0
    6.2412   -1.2217    0.0000 N   0  0  0  0  0  0  0  0  0  0  0  0
    2.4149   -0.1683    0.0000 C   0  0  0  0  0  0  0  0  0  0  0  0
    2.5326    1.3271    0.0000 C   0  0  0  0  0  0  0  0  0  0  0  0
    1.2964    2.1767    0.0000 C   0  0  0  0  0  0  0  0  0  0  0  0
   -0.0575    1.5309    0.0000 C   0  0  0  0  0  0  0  0  0  0  0  0
   -0.1751    0.0355    0.0000 C   0  0  0  0  0  0  0  0  0  0  0  0
    1.0611   -0.8141    0.0000 C   0  0  0  0  0  0  0  0  0  0  0  0
   -1.2937    2.3805    0.0000 N   0  0  0  0  0  0  0  0  0  0  0  0
   -1.1760    3.8758    0.0000 C   0  0  0  0  0  0  0  0  0  0  0  0
    0.1778    4.5216    0.0000 C   0  0  0  0  0  0  0  0  0  0  0  0
    0.4512    5.9965    0.0000 C   0  0  0  0  0  0  0  0  0  0  0  0
    1.9383    6.1923    0.0000 C   0  0  0  0  0  0  0  0  0  0  0  0
    2.5841    4.8385    0.0000 S   0  0  0  0  0  0  0  0  0  0  0  0
    1.4961    3.8059    0.0000 C   0  0  0  0  0  0  0  0  0  0  0  0
   -2.6475    1.7347    0.0000 C   0  0  0  0  0  0  0  0  0  0  0  0
   -3.8837    2.5843    0.0000 O   0  0  0  0  0  0  0  0  0  0  0  0
   -2.7652    0.2393    0.0000 C   0  0  0  0  0  0  0  0  0  0  0  0
   -4.1191   -0.4065    0.0000 N   0  0  0  0  0  0  0  0  0  0  0  0
   -5.4373    0.3092    0.0000 N   0  0  0  0  0  0  0  0  0  0  0  0
   -6.5253   -0.7233    0.0000 N   0  0  0  0  0  0  0  0  0  0  0  0
   -5.8795   -2.0772    0.0000 C   0  0  0  0  0  0  0  0  0  0  0  0
   -6.4535   -3.4630    0.0000 C   0  0  0  0  0  0  0  0  0  0  0  0
   -5.5404   -4.6531    0.0000 C   0  0  0  0  0  0  0  0  0  0  0  0
   -4.0532   -4.4572    0.0000 C   0  0  0  0  0  0  0  0  0  0  0  0
   -3.4792   -3.0714    0.0000 C   0  0  0  0  0  0  0  0  0  0  0  0
   -4.3924   -1.8814    0.0000 C   0  0  0  0  0  0  0  0  0  0  0  0
  1  2  1  0
  2  3  1  0
  3  4  2  0
  3  8  1  0
  4  5  1  0
  5  6  2  0
  6  7  1  0
  6  9  1  0
  7  8  2  0
  9 10  2  0
  9 14  1  0
 10 11  1  0
 11 12  2  0
 12 13  1  0
 12 15  1  0
 13 14  2  0
 15 16  1  0
 15 22  1  0
 16 17  1  0
 17 18  1  0
 17 21  2  0
 18 19  2  0
 19 20  1  0
 20 21  1  0
 22 23  2  0
 22 24  1  0
 24 25  1  0
 25 26  1  0
 25 33  1  0
 26 27  2  0
 27 28  1  0
 28 29  1  0
 28 33  2  0
 29 30  2  0
 30 31  1  0
 31 32  2  0
 32 33  1  0
M  END
>  <s_m_entry_id>  (367) 
860

>  <s_m_entry_name>  (367) 
3C-like_protease_GHDDI_ligprep.479

>  <s_m_Source_Path>  (367) 
/home/jgilaber/drug_learning/drug_learning/datasets/SAR1/GHDDI

>  <s_m_Source_File>  (367) 
3C-like_protease_GHDDI_ligprep.sdf

>  <i_m_Source_File_Index>  (367) 
479

>  <s_m_subgroup_title>  (367) 
3C-like_protease_GHDDI_ligprep

>  <s_m_subgroupid>  (367) 
3C-like_protease_GHDDI_ligprep

>  <b_m_subgroup_collapsed>  (367) 
0

$$$$
13858
     RDKit          2D

 20 22  0  0  1  0  0  0  0  0999 V2000
   -6.2693    0.7543    0.0000 O   0  0  0  0  0  0  0  0  0  0  0  0
   -4.8455    0.2822    0.0000 C   0  0  0  0  0  0  0  0  0  0  0  0
   -4.3905   -1.1471    0.0000 N   0  0  0  0  0  0  0  0  0  0  0  0
   -2.8905   -1.1561    0.0000 C   0  0  0  0  0  0  0  0  0  0  0  0
   -1.8935   -2.2768    0.0000 C   0  0  0  0  0  0  0  0  0  0  0  0
   -0.4245   -1.9737    0.0000 C   0  0  0  0  0  0  0  0  0  0  0  0
    0.0476   -0.5499    0.0000 C   0  0  0  0  0  0  0  0  0  0  0  0
   -0.9494    0.5708    0.0000 C   0  0  0  0  0  0  0  0  0  0  0  0
   -2.4185    0.2677    0.0000 C   0  0  0  0  0  0  0  0  0  0  0  0
   -3.6267    1.1566    0.0000 C   0  0  0  0  0  0  0  0  0  0  0  0
   -3.6177    2.6566    0.0000 O   0  0  0  0  0  0  0  0  0  0  0  0
    1.5166   -0.2468    0.0000 S   0  0  0  0  0  0  0  0  0  0  0  0
    1.8197   -1.7159    0.0000 O   0  0  0  0  0  0  0  0  0  0  0  0
    1.2136    1.2222    0.0000 O   0  0  0  0  0  0  0  0  0  0  0  0
    2.9857    0.0562    0.0000 N   0  0  0  0  0  0  0  0  0  0  0  0
    3.9827   -1.0645    0.0000 C   0  0  0  0  0  0  0  0  0  0  0  0
    5.4518   -0.7614    0.0000 C   0  0  0  0  0  0  0  0  0  0  0  0
    5.9238    0.6624    0.0000 O   0  0  0  0  0  0  0  0  0  0  0  0
    4.9268    1.7831    0.0000 C   0  0  0  0  0  0  0  0  0  0  0  0
    3.4578    1.4800    0.0000 C   0  0  0  0  0  0  0  0  0  0  0  0
  1  2  2  0
  2  3  1  0
  2 10  1  0
  3  4  1  0
  4  5  2  0
  4  9  1  0
  5  6  1  0
  6  7  2  0
  7  8  1  0
  7 12  1  0
  8  9  2  0
  9 10  1  0
 10 11  2  0
 12 13  2  0
 12 14  2  0
 12 15  1  0
 15 16  1  0
 15 20  1  0
 16 17  1  0
 17 18  1  0
 18 19  1  0
 19 20  1  0
M  END
>  <s_m_entry_id>  (368) 
861

>  <s_m_entry_name>  (368) 
3C-like_protease_GHDDI_ligprep.480

>  <s_m_Source_Path>  (368) 
/home/jgilaber/drug_learning/drug_learning/datasets/SAR1/GHDDI

>  <s_m_Source_File>  (368) 
3C-like_protease_GHDDI_ligprep.sdf

>  <i_m_Source_File_Index>  (368) 
480

>  <s_m_subgroup_title>  (368) 
3C-like_protease_GHDDI_ligprep

>  <s_m_subgroupid>  (368) 
3C-like_protease_GHDDI_ligprep

>  <b_m_subgroup_collapsed>  (368) 
0

$$$$
13859
     RDKit          2D

 31 34  0  0  1  0  0  0  0  0999 V2000
   -5.9381    1.3838    0.0000 C   0  0  0  0  0  0  0  0  0  0  0  0
   -5.3721   -0.0053    0.0000 C   0  0  0  0  0  0  0  0  0  0  0  0
   -4.8061   -1.3945    0.0000 C   0  0  0  0  0  0  0  0  0  0  0  0
   -6.7612   -0.5713    0.0000 C   0  0  0  0  0  0  0  0  0  0  0  0
   -3.9830    0.5606    0.0000 N   0  0  0  0  0  0  0  0  0  0  0  0
   -2.7983   -0.3594    0.0000 C   0  0  0  0  0  0  0  0  0  0  0  0
   -3.0027   -1.8454    0.0000 O   0  0  0  0  0  0  0  0  0  0  0  0
   -1.4091    0.2066    0.0000 C   0  0  0  0  0  0  0  0  0  0  0  0
   -0.2244   -0.7135    0.0000 N   0  0  0  0  0  0  0  0  0  0  0  0
   -0.4288   -2.1995    0.0000 C   0  0  0  0  0  0  0  0  0  0  0  0
   -1.8180   -2.7654    0.0000 O   0  0  0  0  0  0  0  0  0  0  0  0
    0.7559   -3.1195    0.0000 C   0  0  0  0  0  0  0  0  0  0  0  0
    2.1965   -2.7018    0.0000 C   0  0  0  0  0  0  0  0  0  0  0  0
    3.0390   -3.9429    0.0000 N   0  0  0  0  0  0  0  0  0  0  0  0
    2.1189   -5.1276    0.0000 C   0  0  0  0  0  0  0  0  0  0  0  0
    0.7079   -4.6187    0.0000 N   0  0  0  0  0  0  0  0  0  0  0  0
    1.1647   -0.1475    0.0000 C   0  0  0  0  0  0  0  0  0  0  0  0
    2.3494   -1.0675    0.0000 C   0  0  0  0  0  0  0  0  0  0  0  0
    3.7385   -0.5016    0.0000 C   0  0  0  0  0  0  0  0  0  0  0  0
    3.9430    0.9845    0.0000 C   0  0  0  0  0  0  0  0  0  0  0  0
    2.7583    1.9045    0.0000 C   0  0  0  0  0  0  0  0  0  0  0  0
    1.3691    1.3385    0.0000 C   0  0  0  0  0  0  0  0  0  0  0  0
    5.3321    1.5504    0.0000 C   0  0  0  0  0  0  0  0  0  0  0  0
    6.2521    2.7351    0.0000 C   0  0  0  0  0  0  0  0  0  0  0  0
    6.8181    1.3460    0.0000 C   0  0  0  0  0  0  0  0  0  0  0  0
   -1.2047    1.6926    0.0000 C   0  0  0  0  0  0  0  0  0  0  0  0
   -2.3894    2.6126    0.0000 C   0  0  0  0  0  0  0  0  0  0  0  0
   -2.1850    4.0986    0.0000 C   0  0  0  0  0  0  0  0  0  0  0  0
   -0.7959    4.6646    0.0000 C   0  0  0  0  0  0  0  0  0  0  0  0
    0.3888    3.7446    0.0000 N   0  0  0  0  0  0  0  0  0  0  0  0
    0.1844    2.2585    0.0000 C   0  0  0  0  0  0  0  0  0  0  0  0
  1  2  1  0
  2  3  1  0
  2  4  1  0
  2  5  1  0
  5  6  1  0
  6  7  2  0
  6  8  1  0
  8  9  1  0
  8 26  1  0
  9 10  1  0
  9 17  1  0
 10 11  2  0
 10 12  1  0
 12 13  2  0
 12 16  1  0
 13 14  1  0
 14 15  2  0
 15 16  1  0
 17 18  2  0
 17 22  1  0
 18 19  1  0
 19 20  2  0
 20 21  1  0
 20 23  1  0
 21 22  2  0
 23 24  1  0
 23 25  1  0
 24 25  1  0
 26 27  2  0
 26 31  1  0
 27 28  1  0
 28 29  2  0
 29 30  1  0
 30 31  2  0
M  END
>  <s_m_entry_id>  (369) 
862

>  <s_m_entry_name>  (369) 
3C-like_protease_GHDDI_ligprep.481

>  <s_m_Source_Path>  (369) 
/home/jgilaber/drug_learning/drug_learning/datasets/SAR1/GHDDI

>  <s_m_Source_File>  (369) 
3C-like_protease_GHDDI_ligprep.sdf

>  <i_m_Source_File_Index>  (369) 
481

>  <s_m_subgroup_title>  (369) 
3C-like_protease_GHDDI_ligprep

>  <s_m_subgroupid>  (369) 
3C-like_protease_GHDDI_ligprep

>  <b_m_subgroup_collapsed>  (369) 
0

$$$$
13860
     RDKit          2D

 42 44  0  0  1  0  0  0  0  0999 V2000
   -8.6266    0.3412    0.0000 C   0  0  0  0  0  0  0  0  0  0  0  0
   -7.7456   -0.8728    0.0000 C   0  0  0  0  0  0  0  0  0  0  0  0
   -6.2537   -0.7168    0.0000 O   0  0  0  0  0  0  0  0  0  0  0  0
   -5.3727   -1.9308    0.0000 C   0  0  0  0  0  0  0  0  0  0  0  0
   -5.9836   -3.3008    0.0000 O   0  0  0  0  0  0  0  0  0  0  0  0
   -3.8809   -1.7749    0.0000 C   0  0  0  0  0  0  0  0  0  0  0  0
   -2.9999   -2.9889    0.0000 C   0  0  0  0  0  0  0  0  0  0  0  0
   -1.5080   -2.8329    0.0000 C   0  0  0  0  0  0  0  0  0  0  0  0
   -0.6270   -4.0469    0.0000 C   0  0  0  0  0  0  0  0  0  0  0  0
    0.8649   -3.8910    0.0000 C   0  0  0  0  0  0  0  0  0  0  0  0
    1.7459   -5.1050    0.0000 C   0  0  0  0  0  0  0  0  0  0  0  0
    3.2378   -4.9490    0.0000 C   0  0  0  0  0  0  0  0  0  0  0  0
    3.8486   -3.5790    0.0000 C   0  0  0  0  0  0  0  0  0  0  0  0
    2.9676   -2.3650    0.0000 C   0  0  0  0  0  0  0  0  0  0  0  0
    1.4757   -2.5210    0.0000 C   0  0  0  0  0  0  0  0  0  0  0  0
   -0.8971   -1.4629    0.0000 N   0  0  0  0  0  0  0  0  0  0  0  0
   -1.7781   -0.2489    0.0000 C   0  0  0  0  0  0  0  0  0  0  0  0
   -3.2700   -0.4049    0.0000 O   0  0  0  0  0  0  0  0  0  0  0  0
   -1.1673    1.1211    0.0000 C   0  0  0  0  0  0  0  0  0  0  0  0
    0.3246    1.2770    0.0000 C   0  0  0  0  0  0  0  0  0  0  0  0
    0.9355    2.6470    0.0000 C   0  0  0  0  0  0  0  0  0  0  0  0
    0.0545    3.8610    0.0000 O   0  0  0  0  0  0  0  0  0  0  0  0
    2.4273    2.8030    0.0000 C   0  0  0  0  0  0  0  0  0  0  0  0
    3.3083    1.5890    0.0000 N   0  0  0  0  0  0  0  0  0  0  0  0
    4.8002    1.7449    0.0000 C   0  0  0  0  0  0  0  0  0  0  0  0
    5.4111    3.1149    0.0000 O   0  0  0  0  0  0  0  0  0  0  0  0
    5.6812    0.5309    0.0000 C   0  0  0  0  0  0  0  0  0  0  0  0
    7.1812    0.5301    0.0000 C   0  0  0  0  0  0  0  0  0  0  0  0
    7.6439   -0.8968    0.0000 C   0  0  0  0  0  0  0  0  0  0  0  0
    9.0703   -1.3611    0.0000 C   0  0  0  0  0  0  0  0  0  0  0  0
    6.4299   -1.7778    0.0000 O   0  0  0  0  0  0  0  0  0  0  0  0
    5.2169   -0.8954    0.0000 N   0  0  0  0  0  0  0  0  0  0  0  0
    3.0382    4.1729    0.0000 C   0  0  0  0  0  0  0  0  0  0  0  0
    4.5301    4.3289    0.0000 C   0  0  0  0  0  0  0  0  0  0  0  0
    2.1572    5.3870    0.0000 C   0  0  0  0  0  0  0  0  0  0  0  0
   -2.0483    2.3351    0.0000 C   0  0  0  0  0  0  0  0  0  0  0  0
   -3.5401    2.1791    0.0000 C   0  0  0  0  0  0  0  0  0  0  0  0
   -4.1510    0.8091    0.0000 C   0  0  0  0  0  0  0  0  0  0  0  0
   -5.6429    0.6532    0.0000 C   0  0  0  0  0  0  0  0  0  0  0  0
   -6.5239    1.8672    0.0000 C   0  0  0  0  0  0  0  0  0  0  0  0
   -5.9130    3.2371    0.0000 C   0  0  0  0  0  0  0  0  0  0  0  0
   -4.4212    3.3931    0.0000 C   0  0  0  0  0  0  0  0  0  0  0  0
  1  2  1  0
  2  3  1  0
  3  4  1  0
  4  5  2  0
  4  6  1  0
  6  7  2  0
  7  8  1  0
  8  9  1  0
  8 16  1  0
  9 10  1  0
 10 11  2  0
 10 15  1  0
 11 12  1  0
 12 13  2  0
 13 14  1  0
 14 15  2  0
 16 17  1  0
 17 18  2  0
 17 19  1  0
 19 20  1  0
 19 36  1  0
 20 21  1  0
 21 22  2  0
 21 23  1  0
 23 24  1  0
 23 33  1  0
 24 25  1  0
 25 26  2  0
 25 27  1  0
 27 28  1  0
 27 32  2  0
 28 29  2  0
 29 30  1  0
 29 31  1  0
 31 32  1  0
 33 34  1  0
 33 35  1  0
 36 37  1  0
 37 38  2  0
 37 42  1  0
 38 39  1  0
 39 40  2  0
 40 41  1  0
 41 42  2  0
M  END
>  <s_m_entry_id>  (370) 
866

>  <s_m_entry_name>  (370) 
3C-like_protease_GHDDI_ligprep.485

>  <s_m_Source_Path>  (370) 
/home/jgilaber/drug_learning/drug_learning/datasets/SAR1/GHDDI

>  <s_m_Source_File>  (370) 
3C-like_protease_GHDDI_ligprep.sdf

>  <i_m_Source_File_Index>  (370) 
485

>  <s_m_subgroup_title>  (370) 
3C-like_protease_GHDDI_ligprep

>  <s_m_subgroupid>  (370) 
3C-like_protease_GHDDI_ligprep

>  <b_m_subgroup_collapsed>  (370) 
0

$$$$
13861
     RDKit          2D

 36 40  0  0  1  0  0  0  0  0999 V2000
   -8.7772   -0.9986    0.0000 O   0  0  0  0  0  0  0  0  0  0  0  0
   -7.3609   -0.5045    0.0000 C   0  0  0  0  0  0  0  0  0  0  0  0
   -6.2249   -1.4839    0.0000 C   0  0  0  0  0  0  0  0  0  0  0  0
   -4.8086   -0.9898    0.0000 C   0  0  0  0  0  0  0  0  0  0  0  0
   -3.6725   -1.9693    0.0000 O   0  0  0  0  0  0  0  0  0  0  0  0
   -4.5284    0.4838    0.0000 C   0  0  0  0  0  0  0  0  0  0  0  0
   -3.1121    0.9779    0.0000 O   0  0  0  0  0  0  0  0  0  0  0  0
   -1.9760   -0.0015    0.0000 C   0  0  0  0  0  0  0  0  0  0  0  0
   -2.2562   -1.4751    0.0000 C   0  0  0  0  0  0  0  0  0  0  0  0
   -1.1202   -2.4546    0.0000 C   0  0  0  0  0  0  0  0  0  0  0  0
   -1.4004   -3.9282    0.0000 O   0  0  0  0  0  0  0  0  0  0  0  0
    0.2961   -1.9604    0.0000 C   0  0  0  0  0  0  0  0  0  0  0  0
    1.4322   -2.9399    0.0000 O   0  0  0  0  0  0  0  0  0  0  0  0
    2.8485   -2.4458    0.0000 C   0  0  0  0  0  0  0  0  0  0  0  0
    3.9845   -3.4252    0.0000 C   0  0  0  0  0  0  0  0  0  0  0  0
    5.4008   -2.9311    0.0000 C   0  0  0  0  0  0  0  0  0  0  0  0
    6.5369   -3.9105    0.0000 O   0  0  0  0  0  0  0  0  0  0  0  0
    5.6810   -1.4575    0.0000 C   0  0  0  0  0  0  0  0  0  0  0  0
    4.5449   -0.4780    0.0000 C   0  0  0  0  0  0  0  0  0  0  0  0
    4.8452    0.4592    0.0000 O   0  0  0  0  0  0  0  0  0  0  0  0
    3.1287   -0.9722    0.0000 C   0  0  0  0  0  0  0  0  0  0  0  0
    1.9926    0.0073    0.0000 O   0  0  0  0  0  0  0  0  0  0  0  0
    0.5763   -0.4868    0.0000 C   0  0  0  0  0  0  0  0  0  0  0  0
   -0.5598    0.4926    0.0000 C   0  0  0  0  0  0  0  0  0  0  0  0
   -0.2796    1.9662    0.0000 O   0  0  0  0  0  0  0  0  0  0  0  0
    1.1367    2.4604    0.0000 C   0  0  0  0  0  0  0  0  0  0  0  0
    1.4169    3.9339    0.0000 C   0  0  0  0  0  0  0  0  0  0  0  0
    2.8332    4.4281    0.0000 C   0  0  0  0  0  0  0  0  0  0  0  0
    3.1134    5.9017    0.0000 O   0  0  0  0  0  0  0  0  0  0  0  0
    3.9692    3.4486    0.0000 C   0  0  0  0  0  0  0  0  0  0  0  0
    3.6891    1.9750    0.0000 C   0  0  0  0  0  0  0  0  0  0  0  0
    4.5072    1.4281    0.0000 O   0  0  0  0  0  0  0  0  0  0  0  0
    2.2728    1.4809    0.0000 C   0  0  0  0  0  0  0  0  0  0  0  0
   -5.6645    1.4633    0.0000 C   0  0  0  0  0  0  0  0  0  0  0  0
   -5.3843    2.9368    0.0000 O   0  0  0  0  0  0  0  0  0  0  0  0
   -7.0807    0.9691    0.0000 C   0  0  0  0  0  0  0  0  0  0  0  0
  1  2  1  0
  2  3  2  0
  2 36  1  0
  3  4  1  0
  4  5  1  0
  4  6  2  0
  6  7  1  0
  6 34  1  0
  7  8  1  0
  8  9  2  0
  8 24  1  0
  9 10  1  0
 10 11  1  0
 10 12  2  0
 12 13  1  0
 12 23  1  0
 13 14  1  0
 14 15  2  0
 14 21  1  0
 15 16  1  0
 16 17  1  0
 16 18  2  0
 18 19  1  0
 19 20  1  0
 19 21  2  0
 21 22  1  0
 22 23  1  0
 23 24  2  0
 24 25  1  0
 25 26  1  0
 26 27  2  0
 26 33  1  0
 27 28  1  0
 28 29  1  0
 28 30  2  0
 30 31  1  0
 31 32  1  0
 31 33  2  0
 34 35  1  0
 34 36  2  0
M  END
>  <s_m_entry_id>  (371) 
867

>  <s_m_entry_name>  (371) 
3C-like_protease_GHDDI_ligprep.486

>  <s_m_Source_Path>  (371) 
/home/jgilaber/drug_learning/drug_learning/datasets/SAR1/GHDDI

>  <s_m_Source_File>  (371) 
3C-like_protease_GHDDI_ligprep.sdf

>  <i_m_Source_File_Index>  (371) 
486

>  <s_m_subgroup_title>  (371) 
3C-like_protease_GHDDI_ligprep

>  <s_m_subgroupid>  (371) 
3C-like_protease_GHDDI_ligprep

>  <b_m_subgroup_collapsed>  (371) 
0

$$$$
13864
     RDKit          2D

 32 35  0  0  1  0  0  0  0  0999 V2000
   -3.3215    5.3706    0.0000 C   0  0  0  0  0  0  0  0  0  0  0  0
   -4.4095    4.3380    0.0000 C   0  0  0  0  0  0  0  0  0  0  0  0
   -5.4975    3.3054    0.0000 C   0  0  0  0  0  0  0  0  0  0  0  0
   -5.4421    5.4260    0.0000 C   0  0  0  0  0  0  0  0  0  0  0  0
   -3.3769    3.2500    0.0000 C   0  0  0  0  0  0  0  0  0  0  0  0
   -1.9184    3.6003    0.0000 O   0  0  0  0  0  0  0  0  0  0  0  0
   -3.8028    1.8117    0.0000 N   0  0  0  0  0  0  0  0  0  0  0  0
   -2.7702    0.7237    0.0000 C   0  0  0  0  0  0  0  0  0  0  0  0
   -1.3117    1.0740    0.0000 C   0  0  0  0  0  0  0  0  0  0  0  0
   -0.2791   -0.0140    0.0000 C   0  0  0  0  0  0  0  0  0  0  0  0
   -0.7050   -1.4522    0.0000 C   0  0  0  0  0  0  0  0  0  0  0  0
   -2.1635   -1.8025    0.0000 C   0  0  0  0  0  0  0  0  0  0  0  0
   -3.1962   -0.7145    0.0000 C   0  0  0  0  0  0  0  0  0  0  0  0
    0.3276   -2.5402    0.0000 N   0  0  0  0  0  0  0  0  0  0  0  0
   -0.0983   -3.9785    0.0000 C   0  0  0  0  0  0  0  0  0  0  0  0
   -1.5569   -4.3288    0.0000 C   0  0  0  0  0  0  0  0  0  0  0  0
   -2.1308   -5.7146    0.0000 C   0  0  0  0  0  0  0  0  0  0  0  0
   -3.6262   -5.5970    0.0000 C   0  0  0  0  0  0  0  0  0  0  0  0
   -3.9764   -4.1385    0.0000 S   0  0  0  0  0  0  0  0  0  0  0  0
   -2.6975   -3.3547    0.0000 C   0  0  0  0  0  0  0  0  0  0  0  0
    1.7861   -2.1900    0.0000 C   0  0  0  0  0  0  0  0  0  0  0  0
    2.8187   -3.2779    0.0000 O   0  0  0  0  0  0  0  0  0  0  0  0
    2.2120   -0.7517    0.0000 C   0  0  0  0  0  0  0  0  0  0  0  0
    3.6706   -0.4014    0.0000 N   0  0  0  0  0  0  0  0  0  0  0  0
    4.8113   -1.3755    0.0000 N   0  0  0  0  0  0  0  0  0  0  0  0
    6.0902   -0.5917    0.0000 N   0  0  0  0  0  0  0  0  0  0  0  0
    5.7399    0.8668    0.0000 C   0  0  0  0  0  0  0  0  0  0  0  0
    6.5894    2.1031    0.0000 C   0  0  0  0  0  0  0  0  0  0  0  0
    5.9436    3.4569    0.0000 C   0  0  0  0  0  0  0  0  0  0  0  0
    4.4482    3.5745    0.0000 C   0  0  0  0  0  0  0  0  0  0  0  0
    3.5986    2.3383    0.0000 C   0  0  0  0  0  0  0  0  0  0  0  0
    4.2445    0.9844    0.0000 C   0  0  0  0  0  0  0  0  0  0  0  0
  1  2  1  0
  2  3  1  0
  2  4  1  0
  2  5  1  0
  5  6  2  0
  5  7  1  0
  7  8  1  0
  8  9  2  0
  8 13  1  0
  9 10  1  0
 10 11  2  0
 11 12  1  0
 11 14  1  0
 12 13  2  0
 14 15  1  0
 14 21  1  0
 15 16  1  0
 16 17  1  0
 16 20  2  0
 17 18  2  0
 18 19  1  0
 19 20  1  0
 21 22  2  0
 21 23  1  0
 23 24  1  0
 24 25  1  0
 24 32  1  0
 25 26  2  0
 26 27  1  0
 27 28  1  0
 27 32  2  0
 28 29  2  0
 29 30  1  0
 30 31  2  0
 31 32  1  0
M  END
>  <s_m_entry_id>  (372) 
870

>  <s_m_entry_name>  (372) 
3C-like_protease_GHDDI_ligprep.489

>  <s_m_Source_Path>  (372) 
/home/jgilaber/drug_learning/drug_learning/datasets/SAR1/GHDDI

>  <s_m_Source_File>  (372) 
3C-like_protease_GHDDI_ligprep.sdf

>  <i_m_Source_File_Index>  (372) 
489

>  <s_m_subgroup_title>  (372) 
3C-like_protease_GHDDI_ligprep

>  <s_m_subgroupid>  (372) 
3C-like_protease_GHDDI_ligprep

>  <b_m_subgroup_collapsed>  (372) 
0

$$$$
13865
     RDKit          2D

 29 32  0  0  1  0  0  0  0  0999 V2000
   -8.3126    1.3098    0.0000 C   0  0  0  0  0  0  0  0  0  0  0  0
   -7.1919    0.3128    0.0000 N   0  0  0  0  0  0  0  0  0  0  0  0
   -7.3398   -1.1799    0.0000 C   0  0  0  0  0  0  0  0  0  0  0  0
   -8.6343   -1.9376    0.0000 O   0  0  0  0  0  0  0  0  0  0  0  0
   -5.9658   -1.7818    0.0000 C   0  0  0  0  0  0  0  0  0  0  0  0
   -5.6452   -3.2471    0.0000 O   0  0  0  0  0  0  0  0  0  0  0  0
   -4.9688   -0.6610    0.0000 C   0  0  0  0  0  0  0  0  0  0  0  0
   -3.4689   -0.6521    0.0000 C   0  0  0  0  0  0  0  0  0  0  0  0
   -2.7267    0.6514    0.0000 C   0  0  0  0  0  0  0  0  0  0  0  0
   -3.4844    1.9460    0.0000 C   0  0  0  0  0  0  0  0  0  0  0  0
   -4.9844    1.9370    0.0000 C   0  0  0  0  0  0  0  0  0  0  0  0
   -5.7266    0.6335    0.0000 C   0  0  0  0  0  0  0  0  0  0  0  0
   -1.2267    0.6604    0.0000 S   0  0  0  0  0  0  0  0  0  0  0  0
   -1.2177   -0.8395    0.0000 O   0  0  0  0  0  0  0  0  0  0  0  0
   -1.2357    2.1604    0.0000 O   0  0  0  0  0  0  0  0  0  0  0  0
    0.2733    0.6694    0.0000 N   0  0  0  0  0  0  0  0  0  0  0  0
    1.0311   -0.6251    0.0000 C   0  0  0  0  0  0  0  0  0  0  0  0
    2.5310   -0.6161    0.0000 C   0  0  0  0  0  0  0  0  0  0  0  0
    3.2732    0.6874    0.0000 N   0  0  0  0  0  0  0  0  0  0  0  0
    4.7732    0.6964    0.0000 C   0  0  0  0  0  0  0  0  0  0  0  0
    5.5310   -0.5981    0.0000 C   0  0  0  0  0  0  0  0  0  0  0  0
    7.0310   -0.5892    0.0000 C   0  0  0  0  0  0  0  0  0  0  0  0
    7.7887   -1.8837    0.0000 C   0  0  0  0  0  0  0  0  0  0  0  0
    9.2887   -1.8747    0.0000 C   0  0  0  0  0  0  0  0  0  0  0  0
   10.0309   -0.5712    0.0000 C   0  0  0  0  0  0  0  0  0  0  0  0
    9.2731    0.7233    0.0000 C   0  0  0  0  0  0  0  0  0  0  0  0
    7.7732    0.7144    0.0000 C   0  0  0  0  0  0  0  0  0  0  0  0
    2.5155    1.9819    0.0000 C   0  0  0  0  0  0  0  0  0  0  0  0
    1.0155    1.9729    0.0000 C   0  0  0  0  0  0  0  0  0  0  0  0
  1  2  1  0
  2  3  1  0
  2 12  1  0
  3  4  2  0
  3  5  1  0
  5  6  2  0
  5  7  1  0
  7  8  2  0
  7 12  1  0
  8  9  1  0
  9 10  2  0
  9 13  1  0
 10 11  1  0
 11 12  2  0
 13 14  2  0
 13 15  2  0
 13 16  1  0
 16 17  1  0
 16 29  1  0
 17 18  1  0
 18 19  1  0
 19 20  1  0
 19 28  1  0
 20 21  1  0
 21 22  1  0
 22 23  2  0
 22 27  1  0
 23 24  1  0
 24 25  2  0
 25 26  1  0
 26 27  2  0
 28 29  1  0
M  END
>  <s_m_entry_id>  (373) 
871

>  <s_m_entry_name>  (373) 
3C-like_protease_GHDDI_ligprep.490

>  <s_m_Source_Path>  (373) 
/home/jgilaber/drug_learning/drug_learning/datasets/SAR1/GHDDI

>  <s_m_Source_File>  (373) 
3C-like_protease_GHDDI_ligprep.sdf

>  <i_m_Source_File_Index>  (373) 
490

>  <s_m_subgroup_title>  (373) 
3C-like_protease_GHDDI_ligprep

>  <s_m_subgroupid>  (373) 
3C-like_protease_GHDDI_ligprep

>  <b_m_subgroup_collapsed>  (373) 
0

$$$$
13866
     RDKit          2D

 27 30  0  0  1  0  0  0  0  0999 V2000
   -3.9931    1.9190    0.0000 O   0  0  0  0  0  0  0  0  0  0  0  0
   -2.6574    1.2365    0.0000 C   0  0  0  0  0  0  0  0  0  0  0  0
   -2.4244   -0.2453    0.0000 N   0  0  0  0  0  0  0  0  0  0  0  0
   -3.4863   -1.3047    0.0000 C   0  0  0  0  0  0  0  0  0  0  0  0
   -4.9347   -0.9149    0.0000 C   0  0  0  0  0  0  0  0  0  0  0  0
   -5.3213    0.5345    0.0000 C   0  0  0  0  0  0  0  0  0  0  0  0
   -6.7698    0.9243    0.0000 C   0  0  0  0  0  0  0  0  0  0  0  0
   -7.8316   -0.1351    0.0000 C   0  0  0  0  0  0  0  0  0  0  0  0
   -7.4450   -1.5844    0.0000 C   0  0  0  0  0  0  0  0  0  0  0  0
   -5.9966   -1.9743    0.0000 C   0  0  0  0  0  0  0  0  0  0  0  0
   -0.9432   -0.4816    0.0000 C   0  0  0  0  0  0  0  0  0  0  0  0
   -0.1276   -1.7406    0.0000 C   0  0  0  0  0  0  0  0  0  0  0  0
    1.3704   -1.6638    0.0000 C   0  0  0  0  0  0  0  0  0  0  0  0
    2.0529   -0.3280    0.0000 C   0  0  0  0  0  0  0  0  0  0  0  0
    1.2374    0.9309    0.0000 C   0  0  0  0  0  0  0  0  0  0  0  0
   -0.2606    0.8541    0.0000 C   0  0  0  0  0  0  0  0  0  0  0  0
   -1.3201    1.9160    0.0000 C   0  0  0  0  0  0  0  0  0  0  0  0
   -1.0838    3.3972    0.0000 O   0  0  0  0  0  0  0  0  0  0  0  0
    3.5509   -0.2512    0.0000 S   0  0  0  0  0  0  0  0  0  0  0  0
    3.6277   -1.7493    0.0000 O   0  0  0  0  0  0  0  0  0  0  0  0
    3.4741    1.2468    0.0000 O   0  0  0  0  0  0  0  0  0  0  0  0
    5.0490   -0.1744    0.0000 N   0  0  0  0  0  0  0  0  0  0  0  0
    5.8645   -1.4334    0.0000 C   0  0  0  0  0  0  0  0  0  0  0  0
    7.3625   -1.3566    0.0000 C   0  0  0  0  0  0  0  0  0  0  0  0
    8.0450   -0.0209    0.0000 O   0  0  0  0  0  0  0  0  0  0  0  0
    7.2295    1.2381    0.0000 C   0  0  0  0  0  0  0  0  0  0  0  0
    5.7315    1.1613    0.0000 C   0  0  0  0  0  0  0  0  0  0  0  0
  1  2  2  0
  2  3  1  0
  2 17  1  0
  3  4  1  0
  3 11  1  0
  4  5  1  0
  5  6  2  0
  5 10  1  0
  6  7  1  0
  7  8  2  0
  8  9  1  0
  9 10  2  0
 11 12  2  0
 11 16  1  0
 12 13  1  0
 13 14  2  0
 14 15  1  0
 14 19  1  0
 15 16  2  0
 16 17  1  0
 17 18  2  0
 19 20  2  0
 19 21  2  0
 19 22  1  0
 22 23  1  0
 22 27  1  0
 23 24  1  0
 24 25  1  0
 25 26  1  0
 26 27  1  0
M  END
>  <s_m_entry_id>  (374) 
872

>  <s_m_entry_name>  (374) 
3C-like_protease_GHDDI_ligprep.491

>  <s_m_Source_Path>  (374) 
/home/jgilaber/drug_learning/drug_learning/datasets/SAR1/GHDDI

>  <s_m_Source_File>  (374) 
3C-like_protease_GHDDI_ligprep.sdf

>  <i_m_Source_File_Index>  (374) 
491

>  <s_m_subgroup_title>  (374) 
3C-like_protease_GHDDI_ligprep

>  <s_m_subgroupid>  (374) 
3C-like_protease_GHDDI_ligprep

>  <b_m_subgroup_collapsed>  (374) 
0

$$$$
13867
     RDKit          2D

 27 30  0  0  1  0  0  0  0  0999 V2000
   -3.9931    1.9190    0.0000 O   0  0  0  0  0  0  0  0  0  0  0  0
   -2.6574    1.2365    0.0000 C   0  0  0  0  0  0  0  0  0  0  0  0
   -2.4244   -0.2453    0.0000 N   0  0  0  0  0  0  0  0  0  0  0  0
   -3.4863   -1.3047    0.0000 C   0  0  0  0  0  0  0  0  0  0  0  0
   -4.9347   -0.9149    0.0000 C   0  0  0  0  0  0  0  0  0  0  0  0
   -5.3213    0.5345    0.0000 C   0  0  0  0  0  0  0  0  0  0  0  0
   -6.7698    0.9243    0.0000 C   0  0  0  0  0  0  0  0  0  0  0  0
   -7.8316   -0.1351    0.0000 C   0  0  0  0  0  0  0  0  0  0  0  0
   -7.4450   -1.5844    0.0000 C   0  0  0  0  0  0  0  0  0  0  0  0
   -5.9966   -1.9743    0.0000 C   0  0  0  0  0  0  0  0  0  0  0  0
   -0.9432   -0.4816    0.0000 C   0  0  0  0  0  0  0  0  0  0  0  0
   -0.1276   -1.7406    0.0000 C   0  0  0  0  0  0  0  0  0  0  0  0
    1.3704   -1.6638    0.0000 C   0  0  0  0  0  0  0  0  0  0  0  0
    2.0529   -0.3280    0.0000 C   0  0  0  0  0  0  0  0  0  0  0  0
    1.2374    0.9309    0.0000 C   0  0  0  0  0  0  0  0  0  0  0  0
   -0.2606    0.8541    0.0000 C   0  0  0  0  0  0  0  0  0  0  0  0
   -1.3201    1.9160    0.0000 C   0  0  0  0  0  0  0  0  0  0  0  0
   -1.0838    3.3972    0.0000 O   0  0  0  0  0  0  0  0  0  0  0  0
    3.5509   -0.2512    0.0000 S   0  0  0  0  0  0  0  0  0  0  0  0
    3.6277   -1.7493    0.0000 O   0  0  0  0  0  0  0  0  0  0  0  0
    3.4741    1.2468    0.0000 O   0  0  0  0  0  0  0  0  0  0  0  0
    5.0490   -0.1744    0.0000 N   0  0  0  0  0  0  0  0  0  0  0  0
    5.8645   -1.4334    0.0000 C   0  0  0  0  0  0  0  0  0  0  0  0
    7.3625   -1.3566    0.0000 C   0  0  0  0  0  0  0  0  0  0  0  0
    8.0450   -0.0209    0.0000 C   0  0  0  0  0  0  0  0  0  0  0  0
    7.2295    1.2381    0.0000 C   0  0  0  0  0  0  0  0  0  0  0  0
    5.7315    1.1613    0.0000 C   0  0  0  0  0  0  0  0  0  0  0  0
  1  2  2  0
  2  3  1  0
  2 17  1  0
  3  4  1  0
  3 11  1  0
  4  5  1  0
  5  6  2  0
  5 10  1  0
  6  7  1  0
  7  8  2  0
  8  9  1  0
  9 10  2  0
 11 12  2  0
 11 16  1  0
 12 13  1  0
 13 14  2  0
 14 15  1  0
 14 19  1  0
 15 16  2  0
 16 17  1  0
 17 18  2  0
 19 20  2  0
 19 21  2  0
 19 22  1  0
 22 23  1  0
 22 27  1  0
 23 24  1  0
 24 25  1  0
 25 26  1  0
 26 27  1  0
M  END
>  <s_m_entry_id>  (375) 
873

>  <s_m_entry_name>  (375) 
3C-like_protease_GHDDI_ligprep.492

>  <s_m_Source_Path>  (375) 
/home/jgilaber/drug_learning/drug_learning/datasets/SAR1/GHDDI

>  <s_m_Source_File>  (375) 
3C-like_protease_GHDDI_ligprep.sdf

>  <i_m_Source_File_Index>  (375) 
492

>  <s_m_subgroup_title>  (375) 
3C-like_protease_GHDDI_ligprep

>  <s_m_subgroupid>  (375) 
3C-like_protease_GHDDI_ligprep

>  <b_m_subgroup_collapsed>  (375) 
0

$$$$
13868
     RDKit          2D

 21 24  0  0  1  0  0  0  0  0999 V2000
   -5.3636    0.5618    0.0000 C   0  0  0  0  0  0  0  0  0  0  0  0
   -4.1705   -0.3474    0.0000 C   0  0  0  0  0  0  0  0  0  0  0  0
   -4.2049   -1.8470    0.0000 C   0  0  0  0  0  0  0  0  0  0  0  0
   -2.7893   -2.3431    0.0000 O   0  0  0  0  0  0  0  0  0  0  0  0
   -1.8801   -1.1501    0.0000 C   0  0  0  0  0  0  0  0  0  0  0  0
   -2.7337    0.0833    0.0000 C   0  0  0  0  0  0  0  0  0  0  0  0
   -2.0924    1.4393    0.0000 C   0  0  0  0  0  0  0  0  0  0  0  0
   -2.9461    2.6727    0.0000 O   0  0  0  0  0  0  0  0  0  0  0  0
   -0.5974    1.5619    0.0000 C   0  0  0  0  0  0  0  0  0  0  0  0
    0.0439    2.9179    0.0000 O   0  0  0  0  0  0  0  0  0  0  0  0
    0.2562    0.3285    0.0000 C   0  0  0  0  0  0  0  0  0  0  0  0
   -0.3851   -1.0275    0.0000 C   0  0  0  0  0  0  0  0  0  0  0  0
    0.4686   -2.2609    0.0000 C   0  0  0  0  0  0  0  0  0  0  0  0
    1.9636   -2.1383    0.0000 C   0  0  0  0  0  0  0  0  0  0  0  0
    2.6049   -0.7823    0.0000 C   0  0  0  0  0  0  0  0  0  0  0  0
    4.0999   -0.6597    0.0000 C   0  0  0  0  0  0  0  0  0  0  0  0
    4.9535   -1.8931    0.0000 C   0  0  0  0  0  0  0  0  0  0  0  0
    4.7412    0.6963    0.0000 C   0  0  0  0  0  0  0  0  0  0  0  0
    3.8875    1.9297    0.0000 C   0  0  0  0  0  0  0  0  0  0  0  0
    2.3925    1.8071    0.0000 C   0  0  0  0  0  0  0  0  0  0  0  0
    1.7512    0.4511    0.0000 C   0  0  0  0  0  0  0  0  0  0  0  0
  1  2  1  0
  2  3  1  0
  2  6  1  0
  3  4  1  0
  4  5  1  0
  5  6  2  0
  5 12  1  0
  6  7  1  0
  7  8  2  0
  7  9  1  0
  9 10  2  0
  9 11  1  0
 11 12  2  0
 11 21  1  0
 12 13  1  0
 13 14  2  0
 14 15  1  0
 15 16  1  0
 15 21  2  0
 16 17  1  0
 16 18  2  0
 18 19  1  0
 19 20  2  0
 20 21  1  0
M  END
>  <s_m_entry_id>  (376) 
874

>  <s_m_entry_name>  (376) 
3C-like_protease_GHDDI_ligprep.493

>  <s_m_Source_Path>  (376) 
/home/jgilaber/drug_learning/drug_learning/datasets/SAR1/GHDDI

>  <s_m_Source_File>  (376) 
3C-like_protease_GHDDI_ligprep.sdf

>  <i_m_Source_File_Index>  (376) 
493

>  <s_m_subgroup_title>  (376) 
3C-like_protease_GHDDI_ligprep

>  <s_m_subgroupid>  (376) 
3C-like_protease_GHDDI_ligprep

>  <b_m_subgroup_collapsed>  (376) 
0

$$$$
13870
     RDKit          2D

 33 34  0  0  1  0  0  0  0  0999 V2000
   -3.1312    4.0149    0.0000 C   0  0  0  0  0  0  0  0  0  0  0  0
   -2.2271    2.8179    0.0000 C   0  0  0  0  0  0  0  0  0  0  0  0
   -2.8117    1.4365    0.0000 C   0  0  0  0  0  0  0  0  0  0  0  0
   -0.7385    3.0024    0.0000 C   0  0  0  0  0  0  0  0  0  0  0  0
    0.1656    1.8055    0.0000 C   0  0  0  0  0  0  0  0  0  0  0  0
    1.6542    1.9900    0.0000 N   0  0  0  0  0  0  0  0  0  0  0  0
    2.5583    0.7930    0.0000 C   0  0  0  0  0  0  0  0  0  0  0  0
    1.9737   -0.5884    0.0000 O   0  0  0  0  0  0  0  0  0  0  0  0
    4.0469    0.9775    0.0000 O   0  0  0  0  0  0  0  0  0  0  0  0
    4.9509   -0.2194    0.0000 C   0  0  0  0  0  0  0  0  0  0  0  0
    6.4395   -0.0349    0.0000 C   0  0  0  0  0  0  0  0  0  0  0  0
    7.3436   -1.2319    0.0000 C   0  0  0  0  0  0  0  0  0  0  0  0
    8.8322   -1.0474    0.0000 C   0  0  0  0  0  0  0  0  0  0  0  0
    9.4168    0.3340    0.0000 C   0  0  0  0  0  0  0  0  0  0  0  0
    8.5127    1.5310    0.0000 C   0  0  0  0  0  0  0  0  0  0  0  0
    7.0241    1.3465    0.0000 C   0  0  0  0  0  0  0  0  0  0  0  0
   -0.4190    0.4241    0.0000 C   0  0  0  0  0  0  0  0  0  0  0  0
    0.4851   -0.7729    0.0000 O   0  0  0  0  0  0  0  0  0  0  0  0
   -1.9076    0.2396    0.0000 N   0  0  0  0  0  0  0  0  0  0  0  0
   -2.4921   -1.1418    0.0000 C   0  0  0  0  0  0  0  0  0  0  0  0
   -3.9807   -1.3263    0.0000 C   0  0  0  0  0  0  0  0  0  0  0  0
   -4.8848   -0.1294    0.0000 C   0  0  0  0  0  0  0  0  0  0  0  0
   -6.3734   -0.3139    0.0000 C   0  0  0  0  0  0  0  0  0  0  0  0
   -7.2775    0.8831    0.0000 C   0  0  0  0  0  0  0  0  0  0  0  0
   -6.6930    2.2645    0.0000 C   0  0  0  0  0  0  0  0  0  0  0  0
   -5.2043    2.4490    0.0000 C   0  0  0  0  0  0  0  0  0  0  0  0
   -4.3003    1.2520    0.0000 C   0  0  0  0  0  0  0  0  0  0  0  0
   -1.5881   -2.3388    0.0000 C   0  0  0  0  0  0  0  0  0  0  0  0
   -0.0994   -2.1543    0.0000 O   0  0  0  0  0  0  0  0  0  0  0  0
   -2.1726   -3.7202    0.0000 C   0  0  0  0  0  0  0  0  0  0  0  0
   -2.7571   -5.1016    0.0000 F   0  0  0  0  0  0  0  0  0  0  0  0
   -3.5540   -3.1356    0.0000 F   0  0  0  0  0  0  0  0  0  0  0  0
   -0.7912   -4.3047    0.0000 F   0  0  0  0  0  0  0  0  0  0  0  0
  1  2  1  0
  2  3  1  0
  2  4  1  0
  4  5  1  0
  5  6  1  0
  5 17  1  0
  6  7  1  0
  7  8  2  0
  7  9  1  0
  9 10  1  0
 10 11  1  0
 11 12  2  0
 11 16  1  0
 12 13  1  0
 13 14  2  0
 14 15  1  0
 15 16  2  0
 17 18  2  0
 17 19  1  0
 19 20  1  0
 20 21  1  0
 20 28  1  0
 21 22  1  0
 22 23  2  0
 22 27  1  0
 23 24  1  0
 24 25  2  0
 25 26  1  0
 26 27  2  0
 28 29  2  0
 28 30  1  0
 30 31  1  0
 30 32  1  0
 30 33  1  0
M  END
>  <s_m_entry_id>  (377) 
877

>  <s_m_entry_name>  (377) 
3C-like_protease_GHDDI_ligprep.496

>  <s_m_Source_Path>  (377) 
/home/jgilaber/drug_learning/drug_learning/datasets/SAR1/GHDDI

>  <s_m_Source_File>  (377) 
3C-like_protease_GHDDI_ligprep.sdf

>  <i_m_Source_File_Index>  (377) 
496

>  <s_m_subgroup_title>  (377) 
3C-like_protease_GHDDI_ligprep

>  <s_m_subgroupid>  (377) 
3C-like_protease_GHDDI_ligprep

>  <b_m_subgroup_collapsed>  (377) 
0

$$$$
13871
     RDKit          2D

 47 48  0  0  1  0  0  0  0  0999 V2000
  -11.2559   -2.2765    0.0000 C   0  0  0  0  0  0  0  0  0  0  0  0
   -9.7869   -2.5799    0.0000 C   0  0  0  0  0  0  0  0  0  0  0  0
   -8.7896   -1.4594    0.0000 O   0  0  0  0  0  0  0  0  0  0  0  0
   -7.3206   -1.7628    0.0000 C   0  0  0  0  0  0  0  0  0  0  0  0
   -6.8489   -3.1867    0.0000 O   0  0  0  0  0  0  0  0  0  0  0  0
   -6.3234   -0.6423    0.0000 C   0  0  0  0  0  0  0  0  0  0  0  0
   -4.8544   -0.9457    0.0000 C   0  0  0  0  0  0  0  0  0  0  0  0
   -3.8572    0.1748    0.0000 C   0  0  0  0  0  0  0  0  0  0  0  0
   -4.3289    1.5987    0.0000 C   0  0  0  0  0  0  0  0  0  0  0  0
   -5.7979    1.9021    0.0000 C   0  0  0  0  0  0  0  0  0  0  0  0
   -6.9068    0.8919    0.0000 C   0  0  0  0  0  0  0  0  0  0  0  0
   -8.2102    1.6344    0.0000 C   0  0  0  0  0  0  0  0  0  0  0  0
   -7.9068    3.1034    0.0000 N   0  0  0  0  0  0  0  0  0  0  0  0
   -6.4159    3.2688    0.0000 C   0  0  0  0  0  0  0  0  0  0  0  0
   -5.6735    4.5722    0.0000 O   0  0  0  0  0  0  0  0  0  0  0  0
   -2.3882   -0.1286    0.0000 N   0  0  0  0  0  0  0  0  0  0  0  0
   -1.9164   -1.5525    0.0000 C   0  0  0  0  0  0  0  0  0  0  0  0
   -2.9137   -2.6730    0.0000 O   0  0  0  0  0  0  0  0  0  0  0  0
   -0.4474   -1.8559    0.0000 C   0  0  0  0  0  0  0  0  0  0  0  0
    0.0243   -3.2797    0.0000 C   0  0  0  0  0  0  0  0  0  0  0  0
    1.4933   -3.5831    0.0000 C   0  0  0  0  0  0  0  0  0  0  0  0
    1.9651   -5.0070    0.0000 C   0  0  0  0  0  0  0  0  0  0  0  0
    3.4341   -5.3104    0.0000 C   0  0  0  0  0  0  0  0  0  0  0  0
    4.4313   -4.1899    0.0000 C   0  0  0  0  0  0  0  0  0  0  0  0
    3.9596   -2.7660    0.0000 C   0  0  0  0  0  0  0  0  0  0  0  0
    2.4906   -2.4626    0.0000 C   0  0  0  0  0  0  0  0  0  0  0  0
    0.5498   -0.7354    0.0000 N   0  0  0  0  0  0  0  0  0  0  0  0
    0.0781    0.6885    0.0000 C   0  0  0  0  0  0  0  0  0  0  0  0
   -1.3909    0.9919    0.0000 O   0  0  0  0  0  0  0  0  0  0  0  0
    1.0753    1.8090    0.0000 C   0  0  0  0  0  0  0  0  0  0  0  0
    2.5443    1.5056    0.0000 N   0  0  0  0  0  0  0  0  0  0  0  0
    3.5415    2.6261    0.0000 C   0  0  0  0  0  0  0  0  0  0  0  0
    3.0698    4.0500    0.0000 O   0  0  0  0  0  0  0  0  0  0  0  0
    5.0105    2.3228    0.0000 C   0  0  0  0  0  0  0  0  0  0  0  0
    6.0078    3.4433    0.0000 C   0  0  0  0  0  0  0  0  0  0  0  0
    7.4768    3.1399    0.0000 O   0  0  0  0  0  0  0  0  0  0  0  0
    5.4823    0.8989    0.0000 N   0  0  0  0  0  0  0  0  0  0  0  0
    6.9513    0.5955    0.0000 C   0  0  0  0  0  0  0  0  0  0  0  0
    7.9485    1.7160    0.0000 O   0  0  0  0  0  0  0  0  0  0  0  0
    7.4231   -0.8284    0.0000 O   0  0  0  0  0  0  0  0  0  0  0  0
    8.8921   -1.1318    0.0000 C   0  0  0  0  0  0  0  0  0  0  0  0
    8.5887   -2.6008    0.0000 C   0  0  0  0  0  0  0  0  0  0  0  0
    9.1954    0.3372    0.0000 C   0  0  0  0  0  0  0  0  0  0  0  0
   10.3611   -1.4352    0.0000 C   0  0  0  0  0  0  0  0  0  0  0  0
    0.6035    3.2329    0.0000 C   0  0  0  0  0  0  0  0  0  0  0  0
    1.6008    4.3534    0.0000 C   0  0  0  0  0  0  0  0  0  0  0  0
   -0.8655    3.5363    0.0000 C   0  0  0  0  0  0  0  0  0  0  0  0
  1  2  1  0
  2  3  1  0
  3  4  1  0
  4  5  2  0
  4  6  1  0
  6  7  2  0
  7  8  1  0
  8  9  1  0
  8 16  1  0
  9 10  1  0
 10 11  1  0
 10 14  1  0
 11 12  1  0
 12 13  1  0
 13 14  1  0
 14 15  2  0
 16 17  1  0
 17 18  2  0
 17 19  1  0
 19 20  1  0
 19 27  1  0
 20 21  1  0
 21 22  2  0
 21 26  1  0
 22 23  1  0
 23 24  2  0
 24 25  1  0
 25 26  2  0
 27 28  1  0
 28 29  2  0
 28 30  1  0
 30 31  1  0
 30 45  1  0
 31 32  1  0
 32 33  2  0
 32 34  1  0
 34 35  1  0
 34 37  1  0
 35 36  1  0
 37 38  1  0
 38 39  2  0
 38 40  1  0
 40 41  1  0
 41 42  1  0
 41 43  1  0
 41 44  1  0
 45 46  1  0
 45 47  1  0
M  END
>  <s_m_entry_id>  (378) 
879

>  <s_m_entry_name>  (378) 
3C-like_protease_GHDDI_ligprep.498

>  <s_m_Source_Path>  (378) 
/home/jgilaber/drug_learning/drug_learning/datasets/SAR1/GHDDI

>  <s_m_Source_File>  (378) 
3C-like_protease_GHDDI_ligprep.sdf

>  <i_m_Source_File_Index>  (378) 
498

>  <s_m_subgroup_title>  (378) 
3C-like_protease_GHDDI_ligprep

>  <s_m_subgroupid>  (378) 
3C-like_protease_GHDDI_ligprep

>  <b_m_subgroup_collapsed>  (378) 
0

$$$$
13873
     RDKit          2D

 40 42  0  0  1  0  0  0  0  0999 V2000
    0.2292   -6.5583    0.0000 C   0  0  0  0  0  0  0  0  0  0  0  0
   -0.1073   -5.0965    0.0000 C   0  0  0  0  0  0  0  0  0  0  0  0
    0.9903   -4.0742    0.0000 C   0  0  0  0  0  0  0  0  0  0  0  0
   -1.5415   -4.6571    0.0000 C   0  0  0  0  0  0  0  0  0  0  0  0
   -1.8780   -3.1953    0.0000 C   0  0  0  0  0  0  0  0  0  0  0  0
   -0.4969   -2.6101    0.0000 N   0  0  0  0  0  0  0  0  0  0  0  0
    0.6008   -1.5878    0.0000 C   0  0  0  0  0  0  0  0  0  0  0  0
    1.7982   -2.4913    0.0000 O   0  0  0  0  0  0  0  0  0  0  0  0
    1.2826   -0.2517    0.0000 C   0  0  0  0  0  0  0  0  0  0  0  0
    1.4663    1.2370    0.0000 C   0  0  0  0  0  0  0  0  0  0  0  0
    0.7704    3.0847    0.0000 C   0  0  0  0  0  0  0  0  0  0  0  0
   -0.7019    3.3718    0.0000 C   0  0  0  0  0  0  0  0  0  0  0  0
   -0.8837    4.8608    0.0000 N   0  0  0  0  0  0  0  0  0  0  0  0
   -2.3179    5.3002    0.0000 C   0  0  0  0  0  0  0  0  0  0  0  0
   -3.8159    5.2226    0.0000 C   0  0  0  0  0  0  0  0  0  0  0  0
   -5.1970    4.6374    0.0000 C   0  0  0  0  0  0  0  0  0  0  0  0
   -6.2947    3.6151    0.0000 N   0  0  0  0  0  0  0  0  0  0  0  0
   -6.9765    2.2790    0.0000 C   0  0  0  0  0  0  0  0  0  0  0  0
   -8.4107    2.7185    0.0000 O   0  0  0  0  0  0  0  0  0  0  0  0
   -7.1603    0.7903    0.0000 C   0  0  0  0  0  0  0  0  0  0  0  0
   -6.8238   -0.6714    0.0000 C   0  0  0  0  0  0  0  0  0  0  0  0
   -6.0076   -1.9300    0.0000 C   0  0  0  0  0  0  0  0  0  0  0  0
   -4.8102   -2.8334    0.0000 N   0  0  0  0  0  0  0  0  0  0  0  0
   -3.3760   -3.2729    0.0000 C   0  0  0  0  0  0  0  0  0  0  0  0
   -3.5597   -4.7616    0.0000 O   0  0  0  0  0  0  0  0  0  0  0  0
   -7.1053   -2.9523    0.0000 C   0  0  0  0  0  0  0  0  0  0  0  0
   -8.5394   -2.5128    0.0000 O   0  0  0  0  0  0  0  0  0  0  0  0
    0.4761    5.4938    0.0000 N   0  0  0  0  0  0  0  0  0  0  0  0
    1.4984    4.3962    0.0000 N   0  0  0  0  0  0  0  0  0  0  0  0
    2.7168   -0.6912    0.0000 N   0  0  0  0  0  0  0  0  0  0  0  0
    3.8144    0.3312    0.0000 C   0  0  0  0  0  0  0  0  0  0  0  0
    3.4779    1.7929    0.0000 O   0  0  0  0  0  0  0  0  0  0  0  0
    5.2486   -0.1083    0.0000 O   0  0  0  0  0  0  0  0  0  0  0  0
    6.3463    0.9140    0.0000 C   0  0  0  0  0  0  0  0  0  0  0  0
    7.7805    0.4746    0.0000 C   0  0  0  0  0  0  0  0  0  0  0  0
    8.8782    1.4969    0.0000 C   0  0  0  0  0  0  0  0  0  0  0  0
   10.3123    1.0574    0.0000 C   0  0  0  0  0  0  0  0  0  0  0  0
   10.6488   -0.4044    0.0000 C   0  0  0  0  0  0  0  0  0  0  0  0
    9.5512   -1.4267    0.0000 C   0  0  0  0  0  0  0  0  0  0  0  0
    8.1170   -0.9872    0.0000 C   0  0  0  0  0  0  0  0  0  0  0  0
  1  2  1  0
  2  3  1  0
  2  4  1  0
  4  5  1  0
  5  6  1  0
  5 24  1  0
  6  7  1  0
  7  8  2  0
  7  9  1  0
  9 10  1  0
  9 30  1  0
 10 11  1  0
 11 12  2  0
 11 29  1  0
 12 13  1  0
 13 14  1  0
 13 28  1  0
 14 15  1  0
 15 16  1  0
 16 17  1  0
 17 18  1  0
 18 19  2  0
 18 20  1  0
 20 21  1  0
 21 22  1  0
 22 23  1  0
 22 26  1  0
 23 24  1  0
 24 25  2  0
 26 27  2  0
 28 29  2  0
 30 31  1  0
 31 32  2  0
 31 33  1  0
 33 34  1  0
 34 35  1  0
 35 36  2  0
 35 40  1  0
 36 37  1  0
 37 38  2  0
 38 39  1  0
 39 40  2  0
M  END
>  <s_m_entry_id>  (379) 
882

>  <s_m_entry_name>  (379) 
3C-like_protease_GHDDI_ligprep.501

>  <s_m_Source_Path>  (379) 
/home/jgilaber/drug_learning/drug_learning/datasets/SAR1/GHDDI

>  <s_m_Source_File>  (379) 
3C-like_protease_GHDDI_ligprep.sdf

>  <i_m_Source_File_Index>  (379) 
501

>  <s_m_subgroup_title>  (379) 
3C-like_protease_GHDDI_ligprep

>  <s_m_subgroupid>  (379) 
3C-like_protease_GHDDI_ligprep

>  <b_m_subgroup_collapsed>  (379) 
0

$$$$
13874
     RDKit          2D

 47 50  0  0  1  0  0  0  0  0999 V2000
   -5.9971    3.1238    0.0000 C   0  0  0  0  0  0  0  0  0  0  0  0
   -4.6661    2.4322    0.0000 C   0  0  0  0  0  0  0  0  0  0  0  0
   -3.4016    3.2392    0.0000 C   0  0  0  0  0  0  0  0  0  0  0  0
   -4.5995    0.9337    0.0000 C   0  0  0  0  0  0  0  0  0  0  0  0
   -5.8639    0.1267    0.0000 N   0  0  0  0  0  0  0  0  0  0  0  0
   -7.1950    0.8183    0.0000 C   0  0  0  0  0  0  0  0  0  0  0  0
   -7.2616    2.3168    0.0000 O   0  0  0  0  0  0  0  0  0  0  0  0
   -8.4594    0.0113    0.0000 C   0  0  0  0  0  0  0  0  0  0  0  0
   -8.5498   -1.4859    0.0000 C   0  0  0  0  0  0  0  0  0  0  0  0
  -10.0017   -1.8626    0.0000 C   0  0  0  0  0  0  0  0  0  0  0  0
  -10.8087   -0.5982    0.0000 C   0  0  0  0  0  0  0  0  0  0  0  0
   -9.8555    0.5600    0.0000 S   0  0  0  0  0  0  0  0  0  0  0  0
   -3.2684    0.2421    0.0000 C   0  0  0  0  0  0  0  0  0  0  0  0
   -2.0039    1.0491    0.0000 O   0  0  0  0  0  0  0  0  0  0  0  0
   -3.2018   -1.2564    0.0000 C   0  0  0  0  0  0  0  0  0  0  0  0
   -1.8707   -1.9480    0.0000 C   0  0  0  0  0  0  0  0  0  0  0  0
   -1.8041   -3.4465    0.0000 C   0  0  0  0  0  0  0  0  0  0  0  0
   -0.4730   -4.1381    0.0000 C   0  0  0  0  0  0  0  0  0  0  0  0
   -0.4064   -5.6366    0.0000 C   0  0  0  0  0  0  0  0  0  0  0  0
    0.9246   -6.3282    0.0000 C   0  0  0  0  0  0  0  0  0  0  0  0
    2.1891   -5.5212    0.0000 C   0  0  0  0  0  0  0  0  0  0  0  0
    2.1225   -4.0227    0.0000 C   0  0  0  0  0  0  0  0  0  0  0  0
    0.7914   -3.3311    0.0000 C   0  0  0  0  0  0  0  0  0  0  0  0
   -0.6063   -1.1410    0.0000 C   0  0  0  0  0  0  0  0  0  0  0  0
    0.7248   -1.8326    0.0000 O   0  0  0  0  0  0  0  0  0  0  0  0
   -0.6729    0.3575    0.0000 N   0  0  0  0  0  0  0  0  0  0  0  0
    0.5916    1.1644    0.0000 C   0  0  0  0  0  0  0  0  0  0  0  0
    0.5250    2.6630    0.0000 C   0  0  0  0  0  0  0  0  0  0  0  0
    1.7894    3.4699    0.0000 C   0  0  0  0  0  0  0  0  0  0  0  0
    3.1205    2.7783    0.0000 C   0  0  0  0  0  0  0  0  0  0  0  0
    4.3849    3.5853    0.0000 C   0  0  0  0  0  0  0  0  0  0  0  0
    4.3183    5.0838    0.0000 C   0  0  0  0  0  0  0  0  0  0  0  0
    2.9872    5.7754    0.0000 C   0  0  0  0  0  0  0  0  0  0  0  0
    1.7228    4.9684    0.0000 C   0  0  0  0  0  0  0  0  0  0  0  0
    1.9226    0.4729    0.0000 C   0  0  0  0  0  0  0  0  0  0  0  0
    1.9892   -1.0256    0.0000 O   0  0  0  0  0  0  0  0  0  0  0  0
    3.1871    1.2798    0.0000 N   0  0  0  0  0  0  0  0  0  0  0  0
    4.5181    0.5883    0.0000 C   0  0  0  0  0  0  0  0  0  0  0  0
    4.5848   -0.9103    0.0000 C   0  0  0  0  0  0  0  0  0  0  0  0
    5.9158   -1.6018    0.0000 C   0  0  0  0  0  0  0  0  0  0  0  0
    7.1803   -0.7949    0.0000 C   0  0  0  0  0  0  0  0  0  0  0  0
    7.1137    0.7036    0.0000 C   0  0  0  0  0  0  0  0  0  0  0  0
    5.7826    1.3952    0.0000 C   0  0  0  0  0  0  0  0  0  0  0  0
    5.7160    2.8937    0.0000 Cl  0  0  0  0  0  0  0  0  0  0  0  0
    8.5113   -1.4865    0.0000 N   0  0  0  0  0  0  0  0  0  0  0  0
    9.7758   -0.6795    0.0000 O   0  0  0  0  0  0  0  0  0  0  0  0
    8.5780   -2.9850    0.0000 O   0  0  0  0  0  0  0  0  0  0  0  0
  1  2  1  0
  2  3  1  0
  2  4  1  0
  4  5  1  0
  4 13  1  0
  5  6  1  0
  6  7  2  0
  6  8  1  0
  8  9  2  0
  8 12  1  0
  9 10  1  0
 10 11  2  0
 11 12  1  0
 13 14  2  0
 13 15  1  0
 15 16  1  0
 16 17  1  0
 16 24  1  0
 17 18  1  0
 18 19  2  0
 18 23  1  0
 19 20  1  0
 20 21  2  0
 21 22  1  0
 22 23  2  0
 24 25  2  0
 24 26  1  0
 26 27  1  0
 27 28  1  0
 27 35  1  0
 28 29  1  0
 29 30  2  0
 29 34  1  0
 30 31  1  0
 31 32  2  0
 32 33  1  0
 33 34  2  0
 35 36  2  0
 35 37  1  0
 37 38  1  0
 38 39  2  0
 38 43  1  0
 39 40  1  0
 40 41  2  0
 41 42  1  0
 41 45  1  0
 42 43  2  0
 43 44  1  0
 45 46  2  0
 45 47  1  0
M  CHG  2  45   1  47  -1
M  END
>  <s_m_entry_id>  (380) 
890

>  <s_m_entry_name>  (380) 
3C-like_protease_GHDDI_ligprep.509

>  <s_m_Source_Path>  (380) 
/home/jgilaber/drug_learning/drug_learning/datasets/SAR1/GHDDI

>  <s_m_Source_File>  (380) 
3C-like_protease_GHDDI_ligprep.sdf

>  <i_m_Source_File_Index>  (380) 
509

>  <s_m_subgroup_title>  (380) 
3C-like_protease_GHDDI_ligprep

>  <s_m_subgroupid>  (380) 
3C-like_protease_GHDDI_ligprep

>  <b_m_subgroup_collapsed>  (380) 
0

$$$$
13875
     RDKit          2D

 52 54  0  0  1  0  0  0  0  0999 V2000
   -6.4138   -5.8485    0.0000 C   0  0  0  0  0  0  0  0  0  0  0  0
   -5.5461   -4.6249    0.0000 C   0  0  0  0  0  0  0  0  0  0  0  0
   -4.0526   -4.7646    0.0000 C   0  0  0  0  0  0  0  0  0  0  0  0
   -6.1719   -3.2617    0.0000 C   0  0  0  0  0  0  0  0  0  0  0  0
   -5.3042   -2.0381    0.0000 C   0  0  0  0  0  0  0  0  0  0  0  0
   -5.9299   -0.6749    0.0000 N   0  0  0  0  0  0  0  0  0  0  0  0
   -5.0622    0.5487    0.0000 C   0  0  0  0  0  0  0  0  0  0  0  0
   -3.5688    0.4090    0.0000 O   0  0  0  0  0  0  0  0  0  0  0  0
   -5.6880    1.9119    0.0000 C   0  0  0  0  0  0  0  0  0  0  0  0
   -4.8203    3.1355    0.0000 N   0  0  0  0  0  0  0  0  0  0  0  0
   -3.3269    2.9958    0.0000 C   0  0  0  0  0  0  0  0  0  0  0  0
   -2.7011    1.6326    0.0000 O   0  0  0  0  0  0  0  0  0  0  0  0
   -2.4592    4.2194    0.0000 N   0  0  0  0  0  0  0  0  0  0  0  0
   -0.9657    4.0797    0.0000 C   0  0  0  0  0  0  0  0  0  0  0  0
   -0.0980    5.3033    0.0000 C   0  0  0  0  0  0  0  0  0  0  0  0
   -0.7238    6.6665    0.0000 O   0  0  0  0  0  0  0  0  0  0  0  0
   -2.2172    6.8062    0.0000 C   0  0  0  0  0  0  0  0  0  0  0  0
   -3.0849    5.5826    0.0000 C   0  0  0  0  0  0  0  0  0  0  0  0
   -7.1815    2.0516    0.0000 C   0  0  0  0  0  0  0  0  0  0  0  0
   -8.0492    0.8280    0.0000 C   0  0  0  0  0  0  0  0  0  0  0  0
   -7.8073    3.4148    0.0000 C   0  0  0  0  0  0  0  0  0  0  0  0
   -3.8107   -2.1778    0.0000 C   0  0  0  0  0  0  0  0  0  0  0  0
   -2.9430   -0.9542    0.0000 O   0  0  0  0  0  0  0  0  0  0  0  0
   -3.1849   -3.5410    0.0000 N   0  0  0  0  0  0  0  0  0  0  0  0
   -1.6914   -3.6807    0.0000 C   0  0  0  0  0  0  0  0  0  0  0  0
   -1.0656   -5.0439    0.0000 C   0  0  0  0  0  0  0  0  0  0  0  0
    0.4279   -5.1836    0.0000 C   0  0  0  0  0  0  0  0  0  0  0  0
   -1.9333   -6.2675    0.0000 O   0  0  0  0  0  0  0  0  0  0  0  0
   -0.8237   -2.4571    0.0000 C   0  0  0  0  0  0  0  0  0  0  0  0
   -1.4495   -1.0939    0.0000 O   0  0  0  0  0  0  0  0  0  0  0  0
    0.6698   -2.5968    0.0000 N   0  0  0  0  0  0  0  0  0  0  0  0
    1.5375   -1.3732    0.0000 C   0  0  0  0  0  0  0  0  0  0  0  0
    0.9117   -0.0100    0.0000 C   0  0  0  0  0  0  0  0  0  0  0  0
    1.7794    1.2136    0.0000 C   0  0  0  0  0  0  0  0  0  0  0  0
    1.1536    2.5768    0.0000 C   0  0  0  0  0  0  0  0  0  0  0  0
    2.0213    3.8004    0.0000 C   0  0  0  0  0  0  0  0  0  0  0  0
    3.5148    3.6607    0.0000 C   0  0  0  0  0  0  0  0  0  0  0  0
    4.1406    2.2975    0.0000 C   0  0  0  0  0  0  0  0  0  0  0  0
    3.2729    1.0739    0.0000 C   0  0  0  0  0  0  0  0  0  0  0  0
    3.0310   -1.5129    0.0000 C   0  0  0  0  0  0  0  0  0  0  0  0
    3.6567   -2.8761    0.0000 O   0  0  0  0  0  0  0  0  0  0  0  0
    3.8987   -0.2893    0.0000 N   0  0  0  0  0  0  0  0  0  0  0  0
    5.3921   -0.4290    0.0000 C   0  0  0  0  0  0  0  0  0  0  0  0
    6.0179   -1.7922    0.0000 C   0  0  0  0  0  0  0  0  0  0  0  0
    7.5114   -1.9319    0.0000 C   0  0  0  0  0  0  0  0  0  0  0  0
    8.3791   -0.7083    0.0000 C   0  0  0  0  0  0  0  0  0  0  0  0
    7.7533    0.6549    0.0000 C   0  0  0  0  0  0  0  0  0  0  0  0
    6.2598    0.7946    0.0000 C   0  0  0  0  0  0  0  0  0  0  0  0
    5.6340    2.1578    0.0000 Cl  0  0  0  0  0  0  0  0  0  0  0  0
    9.8726   -0.8480    0.0000 N   0  0  0  0  0  0  0  0  0  0  0  0
   10.7403    0.3756    0.0000 O   0  0  0  0  0  0  0  0  0  0  0  0
   10.4984   -2.2112    0.0000 O   0  0  0  0  0  0  0  0  0  0  0  0
  1  2  1  0
  2  3  1  0
  2  4  1  0
  4  5  1  0
  5  6  1  0
  5 22  1  0
  6  7  1  0
  7  8  2  0
  7  9  1  0
  9 10  1  0
  9 19  1  0
 10 11  1  0
 11 12  2  0
 11 13  1  0
 13 14  1  0
 13 18  1  0
 14 15  1  0
 15 16  1  0
 16 17  1  0
 17 18  1  0
 19 20  1  0
 19 21  1  0
 22 23  2  0
 22 24  1  0
 24 25  1  0
 25 26  1  0
 25 29  1  0
 26 27  1  0
 26 28  1  0
 29 30  2  0
 29 31  1  0
 31 32  1  0
 32 33  1  0
 32 40  1  0
 33 34  1  0
 34 35  2  0
 34 39  1  0
 35 36  1  0
 36 37  2  0
 37 38  1  0
 38 39  2  0
 40 41  2  0
 40 42  1  0
 42 43  1  0
 43 44  2  0
 43 48  1  0
 44 45  1  0
 45 46  2  0
 46 47  1  0
 46 50  1  0
 47 48  2  0
 48 49  1  0
 50 51  2  0
 50 52  1  0
M  CHG  2  50   1  52  -1
M  END
>  <s_m_entry_id>  (381) 
891

>  <s_m_entry_name>  (381) 
3C-like_protease_GHDDI_ligprep.510

>  <s_m_Source_Path>  (381) 
/home/jgilaber/drug_learning/drug_learning/datasets/SAR1/GHDDI

>  <s_m_Source_File>  (381) 
3C-like_protease_GHDDI_ligprep.sdf

>  <i_m_Source_File_Index>  (381) 
510

>  <s_m_subgroup_title>  (381) 
3C-like_protease_GHDDI_ligprep

>  <s_m_subgroupid>  (381) 
3C-like_protease_GHDDI_ligprep

>  <b_m_subgroup_collapsed>  (381) 
0

$$$$
13876
     RDKit          2D

 23 24  0  0  1  0  0  0  0  0999 V2000
   -7.7033   -1.3243    0.0000 C   0  0  0  0  0  0  0  0  0  0  0  0
   -6.4377   -2.1295    0.0000 O   0  0  0  0  0  0  0  0  0  0  0  0
   -5.1076   -1.4362    0.0000 C   0  0  0  0  0  0  0  0  0  0  0  0
   -5.0430    0.0624    0.0000 C   0  0  0  0  0  0  0  0  0  0  0  0
   -3.7129    0.7558    0.0000 C   0  0  0  0  0  0  0  0  0  0  0  0
   -2.4473   -0.0494    0.0000 C   0  0  0  0  0  0  0  0  0  0  0  0
   -2.5119   -1.5481    0.0000 C   0  0  0  0  0  0  0  0  0  0  0  0
   -3.8421   -2.2414    0.0000 C   0  0  0  0  0  0  0  0  0  0  0  0
   -1.1172    0.6439    0.0000 N   0  0  0  0  0  0  0  0  0  0  0  0
    0.1483   -0.1613    0.0000 C   0  0  0  0  0  0  0  0  0  0  0  0
    1.4785    0.5320    0.0000 C   0  0  0  0  0  0  0  0  0  0  0  0
    1.5430    2.0307    0.0000 O   0  0  0  0  0  0  0  0  0  0  0  0
    2.7440   -0.2732    0.0000 N   0  0  0  0  0  0  0  0  0  0  0  0
    4.0741    0.4202    0.0000 C   0  0  0  0  0  0  0  0  0  0  0  0
    5.3397   -0.3851    0.0000 C   0  0  0  0  0  0  0  0  0  0  0  0
    6.7350    0.1655    0.0000 O   0  0  0  0  0  0  0  0  0  0  0  0
    7.6897   -0.9914    0.0000 C   0  0  0  0  0  0  0  0  0  0  0  0
    6.8845   -2.2570    0.0000 C   0  0  0  0  0  0  0  0  0  0  0  0
    5.4321   -1.8822    0.0000 C   0  0  0  0  0  0  0  0  0  0  0  0
   -1.0526    2.1425    0.0000 S   0  0  0  0  0  0  0  0  0  0  0  0
   -2.5512    2.2071    0.0000 O   0  0  0  0  0  0  0  0  0  0  0  0
    0.4460    2.0779    0.0000 O   0  0  0  0  0  0  0  0  0  0  0  0
   -0.9880    3.6411    0.0000 C   0  0  0  0  0  0  0  0  0  0  0  0
  1  2  1  0
  2  3  1  0
  3  4  2  0
  3  8  1  0
  4  5  1  0
  5  6  2  0
  6  7  1  0
  6  9  1  0
  7  8  2  0
  9 10  1  0
  9 20  1  0
 10 11  1  0
 11 12  2  0
 11 13  1  0
 13 14  1  0
 14 15  1  0
 15 16  1  0
 15 19  2  0
 16 17  1  0
 17 18  2  0
 18 19  1  0
 20 21  2  0
 20 22  2  0
 20 23  1  0
M  END
>  <s_m_entry_id>  (382) 
894

>  <s_m_entry_name>  (382) 
3C-like_protease_GHDDI_ligprep.513

>  <s_m_Source_Path>  (382) 
/home/jgilaber/drug_learning/drug_learning/datasets/SAR1/GHDDI

>  <s_m_Source_File>  (382) 
3C-like_protease_GHDDI_ligprep.sdf

>  <i_m_Source_File_Index>  (382) 
513

>  <s_m_subgroup_title>  (382) 
3C-like_protease_GHDDI_ligprep

>  <s_m_subgroupid>  (382) 
3C-like_protease_GHDDI_ligprep

>  <b_m_subgroup_collapsed>  (382) 
0

$$$$
13879
     RDKit          2D

 32 36  0  0  1  0  0  0  0  0999 V2000
  -10.3218    0.4316    0.0000 C   0  0  0  0  0  0  0  0  0  0  0  0
   -8.8308    0.2681    0.0000 C   0  0  0  0  0  0  0  0  0  0  0  0
   -7.9436    1.4776    0.0000 C   0  0  0  0  0  0  0  0  0  0  0  0
   -6.4525    1.3141    0.0000 C   0  0  0  0  0  0  0  0  0  0  0  0
   -5.8486   -0.0590    0.0000 N   0  0  0  0  0  0  0  0  0  0  0  0
   -6.7358   -1.2685    0.0000 C   0  0  0  0  0  0  0  0  0  0  0  0
   -8.2268   -1.1050    0.0000 C   0  0  0  0  0  0  0  0  0  0  0  0
   -4.3576   -0.2225    0.0000 S   0  0  0  0  0  0  0  0  0  0  0  0
   -4.1941    1.2686    0.0000 O   0  0  0  0  0  0  0  0  0  0  0  0
   -4.5211   -1.7135    0.0000 O   0  0  0  0  0  0  0  0  0  0  0  0
   -2.8665   -0.3860    0.0000 C   0  0  0  0  0  0  0  0  0  0  0  0
   -2.2626   -1.7591    0.0000 C   0  0  0  0  0  0  0  0  0  0  0  0
   -0.7715   -1.9226    0.0000 C   0  0  0  0  0  0  0  0  0  0  0  0
    0.1156   -0.7130    0.0000 C   0  0  0  0  0  0  0  0  0  0  0  0
    1.6081   -0.5630    0.0000 N   0  0  0  0  0  0  0  0  0  0  0  0
    2.6067   -1.6822    0.0000 C   0  0  0  0  0  0  0  0  0  0  0  0
    4.0754   -1.3770    0.0000 C   0  0  0  0  0  0  0  0  0  0  0  0
    5.0740   -2.4962    0.0000 C   0  0  0  0  0  0  0  0  0  0  0  0
    6.5426   -2.1909    0.0000 C   0  0  0  0  0  0  0  0  0  0  0  0
    7.0126   -0.7665    0.0000 C   0  0  0  0  0  0  0  0  0  0  0  0
    8.4812   -0.4612    0.0000 C   0  0  0  0  0  0  0  0  0  0  0  0
    8.9512    0.9633    0.0000 C   0  0  0  0  0  0  0  0  0  0  0  0
    7.9525    2.0825    0.0000 C   0  0  0  0  0  0  0  0  0  0  0  0
    6.4839    1.7772    0.0000 C   0  0  0  0  0  0  0  0  0  0  0  0
    6.0139    0.3528    0.0000 C   0  0  0  0  0  0  0  0  0  0  0  0
    4.5453    0.0475    0.0000 C   0  0  0  0  0  0  0  0  0  0  0  0
    1.9266    0.9028    0.0000 C   0  0  0  0  0  0  0  0  0  0  0  0
    3.2996    1.5067    0.0000 O   0  0  0  0  0  0  0  0  0  0  0  0
    0.6309    1.6587    0.0000 C   0  0  0  0  0  0  0  0  0  0  0  0
    0.4809    3.1511    0.0000 O   0  0  0  0  0  0  0  0  0  0  0  0
   -0.4883    0.6600    0.0000 C   0  0  0  0  0  0  0  0  0  0  0  0
   -1.9794    0.8235    0.0000 C   0  0  0  0  0  0  0  0  0  0  0  0
  1  2  1  0
  2  3  1  0
  2  7  1  0
  3  4  1  0
  4  5  1  0
  5  6  1  0
  5  8  1  0
  6  7  1  0
  8  9  2  0
  8 10  2  0
  8 11  1  0
 11 12  2  0
 11 32  1  0
 12 13  1  0
 13 14  2  0
 14 15  1  0
 14 31  1  0
 15 16  1  0
 15 27  1  0
 16 17  1  0
 17 18  2  0
 17 26  1  0
 18 19  1  0
 19 20  2  0
 20 21  1  0
 20 25  1  0
 21 22  2  0
 22 23  1  0
 23 24  2  0
 24 25  1  0
 25 26  2  0
 27 28  2  0
 27 29  1  0
 29 30  2  0
 29 31  1  0
 31 32  2  0
M  END
>  <s_m_entry_id>  (383) 
898

>  <s_m_entry_name>  (383) 
3C-like_protease_GHDDI_ligprep.517

>  <s_m_Source_Path>  (383) 
/home/jgilaber/drug_learning/drug_learning/datasets/SAR1/GHDDI

>  <s_m_Source_File>  (383) 
3C-like_protease_GHDDI_ligprep.sdf

>  <i_m_Source_File_Index>  (383) 
517

>  <s_m_subgroup_title>  (383) 
3C-like_protease_GHDDI_ligprep

>  <s_m_subgroupid>  (383) 
3C-like_protease_GHDDI_ligprep

>  <b_m_subgroup_collapsed>  (383) 
0

$$$$
13880
     RDKit          2D

 20 22  0  0  1  0  0  0  0  0999 V2000
   -6.6017    0.9120    0.0000 C   0  0  0  0  0  0  0  0  0  0  0  0
   -5.3969    0.0184    0.0000 N   0  0  0  0  0  0  0  0  0  0  0  0
   -5.4117   -1.4815    0.0000 C   0  0  0  0  0  0  0  0  0  0  0  0
   -3.9897   -1.9591    0.0000 N   0  0  0  0  0  0  0  0  0  0  0  0
   -3.0961   -0.7543    0.0000 C   0  0  0  0  0  0  0  0  0  0  0  0
   -1.6029   -0.6122    0.0000 C   0  0  0  0  0  0  0  0  0  0  0  0
   -0.9793    0.7520    0.0000 C   0  0  0  0  0  0  0  0  0  0  0  0
    0.5140    0.8941    0.0000 N   0  0  0  0  0  0  0  0  0  0  0  0
    1.3836   -0.3281    0.0000 C   0  0  0  0  0  0  0  0  0  0  0  0
    0.7601   -1.6923    0.0000 O   0  0  0  0  0  0  0  0  0  0  0  0
    2.8769   -0.1860    0.0000 C   0  0  0  0  0  0  0  0  0  0  0  0
    3.7466   -1.4081    0.0000 C   0  0  0  0  0  0  0  0  0  0  0  0
    5.2398   -1.2661    0.0000 C   0  0  0  0  0  0  0  0  0  0  0  0
    5.8634    0.0982    0.0000 C   0  0  0  0  0  0  0  0  0  0  0  0
    7.3567    0.2402    0.0000 Cl  0  0  0  0  0  0  0  0  0  0  0  0
    4.9937    1.3203    0.0000 C   0  0  0  0  0  0  0  0  0  0  0  0
    3.5005    1.1782    0.0000 C   0  0  0  0  0  0  0  0  0  0  0  0
   -1.8490    1.9742    0.0000 C   0  0  0  0  0  0  0  0  0  0  0  0
   -3.3422    1.8321    0.0000 C   0  0  0  0  0  0  0  0  0  0  0  0
   -3.9658    0.4679    0.0000 C   0  0  0  0  0  0  0  0  0  0  0  0
  1  2  1  0
  2  3  1  0
  2 20  1  0
  3  4  2  0
  4  5  1  0
  5  6  1  0
  5 20  2  0
  6  7  2  0
  7  8  1  0
  7 18  1  0
  8  9  1  0
  9 10  2  0
  9 11  1  0
 11 12  2  0
 11 17  1  0
 12 13  1  0
 13 14  2  0
 14 15  1  0
 14 16  1  0
 16 17  2  0
 18 19  2  0
 19 20  1  0
M  END
>  <s_m_entry_id>  (384) 
906

>  <s_m_entry_name>  (384) 
3C-like_protease_GHDDI_ligprep.525

>  <s_m_Source_Path>  (384) 
/home/jgilaber/drug_learning/drug_learning/datasets/SAR1/GHDDI

>  <s_m_Source_File>  (384) 
3C-like_protease_GHDDI_ligprep.sdf

>  <i_m_Source_File_Index>  (384) 
525

>  <s_m_subgroup_title>  (384) 
3C-like_protease_GHDDI_ligprep

>  <s_m_subgroupid>  (384) 
3C-like_protease_GHDDI_ligprep

>  <b_m_subgroup_collapsed>  (384) 
0

$$$$
13882
     RDKit          2D

 45 47  0  0  1  0  0  0  0  0999 V2000
    1.0184   -7.2803    0.0000 C   0  0  0  0  0  0  0  0  0  0  0  0
    0.6371   -5.8296    0.0000 C   0  0  0  0  0  0  0  0  0  0  0  0
    1.7027   -4.7740    0.0000 C   0  0  0  0  0  0  0  0  0  0  0  0
   -0.8100   -5.4345    0.0000 C   0  0  0  0  0  0  0  0  0  0  0  0
   -1.1913   -3.9838    0.0000 C   0  0  0  0  0  0  0  0  0  0  0  0
   -2.6384   -3.5887    0.0000 N   0  0  0  0  0  0  0  0  0  0  0  0
   -3.0198   -2.1380    0.0000 C   0  0  0  0  0  0  0  0  0  0  0  0
   -1.9541   -1.0824    0.0000 O   0  0  0  0  0  0  0  0  0  0  0  0
   -4.4668   -1.7429    0.0000 C   0  0  0  0  0  0  0  0  0  0  0  0
   -4.8482   -0.2922    0.0000 N   0  0  0  0  0  0  0  0  0  0  0  0
   -3.7825    0.7634    0.0000 C   0  0  0  0  0  0  0  0  0  0  0  0
   -2.3355    0.3683    0.0000 O   0  0  0  0  0  0  0  0  0  0  0  0
   -4.1639    2.2141    0.0000 N   0  0  0  0  0  0  0  0  0  0  0  0
   -3.0982    3.2697    0.0000 C   0  0  0  0  0  0  0  0  0  0  0  0
   -3.4796    4.7205    0.0000 C   0  0  0  0  0  0  0  0  0  0  0  0
   -4.9266    5.1155    0.0000 O   0  0  0  0  0  0  0  0  0  0  0  0
   -5.9923    4.0599    0.0000 C   0  0  0  0  0  0  0  0  0  0  0  0
   -5.6109    2.6092    0.0000 C   0  0  0  0  0  0  0  0  0  0  0  0
   -5.5325   -2.7986    0.0000 C   0  0  0  0  0  0  0  0  0  0  0  0
   -5.1511   -4.2493    0.0000 C   0  0  0  0  0  0  0  0  0  0  0  0
   -6.9795   -2.4035    0.0000 C   0  0  0  0  0  0  0  0  0  0  0  0
   -0.1257   -2.9282    0.0000 C   0  0  0  0  0  0  0  0  0  0  0  0
   -0.5070   -1.4775    0.0000 O   0  0  0  0  0  0  0  0  0  0  0  0
    1.3214   -3.3233    0.0000 N   0  0  0  0  0  0  0  0  0  0  0  0
    2.3870   -2.2676    0.0000 C   0  0  0  0  0  0  0  0  0  0  0  0
    3.8341   -2.6627    0.0000 C   0  0  0  0  0  0  0  0  0  0  0  0
    4.8997   -1.6071    0.0000 C   0  0  0  0  0  0  0  0  0  0  0  0
    6.3468   -2.0022    0.0000 C   0  0  0  0  0  0  0  0  0  0  0  0
    7.4124   -0.9465    0.0000 C   0  0  0  0  0  0  0  0  0  0  0  0
    7.0311    0.5042    0.0000 C   0  0  0  0  0  0  0  0  0  0  0  0
    5.5840    0.8993    0.0000 C   0  0  0  0  0  0  0  0  0  0  0  0
    4.5184   -0.1564    0.0000 C   0  0  0  0  0  0  0  0  0  0  0  0
    2.0057   -0.8169    0.0000 C   0  0  0  0  0  0  0  0  0  0  0  0
    0.5586   -0.4218    0.0000 O   0  0  0  0  0  0  0  0  0  0  0  0
    3.0713    0.2387    0.0000 N   0  0  0  0  0  0  0  0  0  0  0  0
    2.6900    1.6894    0.0000 C   0  0  0  0  0  0  0  0  0  0  0  0
    3.7556    2.7451    0.0000 C   0  0  0  0  0  0  0  0  0  0  0  0
    3.3743    4.1958    0.0000 C   0  0  0  0  0  0  0  0  0  0  0  0
    1.9272    4.5908    0.0000 C   0  0  0  0  0  0  0  0  0  0  0  0
    0.8616    3.5352    0.0000 C   0  0  0  0  0  0  0  0  0  0  0  0
    1.2429    2.0845    0.0000 C   0  0  0  0  0  0  0  0  0  0  0  0
    0.1773    1.0289    0.0000 Cl  0  0  0  0  0  0  0  0  0  0  0  0
    1.5459    6.0416    0.0000 N   0  0  0  0  0  0  0  0  0  0  0  0
    0.0988    6.4366    0.0000 O   0  0  0  0  0  0  0  0  0  0  0  0
    2.6115    7.0972    0.0000 O   0  0  0  0  0  0  0  0  0  0  0  0
  1  2  1  0
  2  3  1  0
  2  4  1  0
  4  5  1  0
  5  6  1  0
  5 22  1  0
  6  7  1  0
  7  8  2  0
  7  9  1  0
  9 10  1  0
  9 19  1  0
 10 11  1  0
 11 12  2  0
 11 13  1  0
 13 14  1  0
 13 18  1  0
 14 15  1  0
 15 16  1  0
 16 17  1  0
 17 18  1  0
 19 20  1  0
 19 21  1  0
 22 23  2  0
 22 24  1  0
 24 25  1  0
 25 26  1  0
 25 33  1  0
 26 27  1  0
 27 28  2  0
 27 32  1  0
 28 29  1  0
 29 30  2  0
 30 31  1  0
 31 32  2  0
 33 34  2  0
 33 35  1  0
 35 36  1  0
 36 37  2  0
 36 41  1  0
 37 38  1  0
 38 39  2  0
 39 40  1  0
 39 43  1  0
 40 41  2  0
 41 42  1  0
 43 44  2  0
 43 45  1  0
M  CHG  2  43   1  45  -1
M  END
>  <s_m_entry_id>  (385) 
908

>  <s_m_entry_name>  (385) 
3C-like_protease_GHDDI_ligprep.527

>  <s_m_Source_Path>  (385) 
/home/jgilaber/drug_learning/drug_learning/datasets/SAR1/GHDDI

>  <s_m_Source_File>  (385) 
3C-like_protease_GHDDI_ligprep.sdf

>  <i_m_Source_File_Index>  (385) 
527

>  <s_m_subgroup_title>  (385) 
3C-like_protease_GHDDI_ligprep

>  <s_m_subgroupid>  (385) 
3C-like_protease_GHDDI_ligprep

>  <b_m_subgroup_collapsed>  (385) 
0

$$$$
13883
     RDKit          2D

 44 45  0  0  1  0  0  0  0  0999 V2000
   -2.4666    4.7031    0.0000 C   0  0  0  0  0  0  0  0  0  0  0  0
   -1.9455    3.2965    0.0000 C   0  0  0  0  0  0  0  0  0  0  0  0
   -2.9030    2.1419    0.0000 C   0  0  0  0  0  0  0  0  0  0  0  0
   -0.4668    3.0445    0.0000 C   0  0  0  0  0  0  0  0  0  0  0  0
    0.0543    1.6379    0.0000 C   0  0  0  0  0  0  0  0  0  0  0  0
    1.5330    1.3860    0.0000 C   0  0  0  0  0  0  0  0  0  0  0  0
    2.4906    2.5406    0.0000 C   0  0  0  0  0  0  0  0  0  0  0  0
    1.9695    3.9471    0.0000 O   0  0  0  0  0  0  0  0  0  0  0  0
    3.9693    2.2886    0.0000 C   0  0  0  0  0  0  0  0  0  0  0  0
    4.4904    0.8820    0.0000 N   0  0  0  0  0  0  0  0  0  0  0  0
    5.9691    0.6300    0.0000 C   0  0  0  0  0  0  0  0  0  0  0  0
    6.9266    1.7846    0.0000 O   0  0  0  0  0  0  0  0  0  0  0  0
    6.4902   -0.7765    0.0000 O   0  0  0  0  0  0  0  0  0  0  0  0
    7.9689   -1.0285    0.0000 C   0  0  0  0  0  0  0  0  0  0  0  0
    7.7169   -2.5072    0.0000 C   0  0  0  0  0  0  0  0  0  0  0  0
    8.2209    0.4502    0.0000 C   0  0  0  0  0  0  0  0  0  0  0  0
    9.4476   -1.2805    0.0000 C   0  0  0  0  0  0  0  0  0  0  0  0
    4.9268    3.4432    0.0000 C   0  0  0  0  0  0  0  0  0  0  0  0
    6.4055    3.1912    0.0000 C   0  0  0  0  0  0  0  0  0  0  0  0
    4.4057    4.8497    0.0000 C   0  0  0  0  0  0  0  0  0  0  0  0
   -0.9032    0.4834    0.0000 C   0  0  0  0  0  0  0  0  0  0  0  0
   -2.3819    0.7353    0.0000 O   0  0  0  0  0  0  0  0  0  0  0  0
   -0.3821   -0.9232    0.0000 N   0  0  0  0  0  0  0  0  0  0  0  0
   -1.3397   -2.0778    0.0000 C   0  0  0  0  0  0  0  0  0  0  0  0
   -0.8186   -3.4844    0.0000 C   0  0  0  0  0  0  0  0  0  0  0  0
    0.6601   -3.7363    0.0000 C   0  0  0  0  0  0  0  0  0  0  0  0
    1.1812   -5.1429    0.0000 C   0  0  0  0  0  0  0  0  0  0  0  0
    2.6599   -5.3949    0.0000 C   0  0  0  0  0  0  0  0  0  0  0  0
    3.6175   -4.2403    0.0000 C   0  0  0  0  0  0  0  0  0  0  0  0
    3.0964   -2.8337    0.0000 C   0  0  0  0  0  0  0  0  0  0  0  0
    1.6177   -2.5818    0.0000 C   0  0  0  0  0  0  0  0  0  0  0  0
   -2.8184   -1.8258    0.0000 C   0  0  0  0  0  0  0  0  0  0  0  0
   -3.7759   -2.9804    0.0000 O   0  0  0  0  0  0  0  0  0  0  0  0
   -3.3395   -0.4192    0.0000 N   0  0  0  0  0  0  0  0  0  0  0  0
   -4.8182   -0.1673    0.0000 C   0  0  0  0  0  0  0  0  0  0  0  0
   -5.3393    1.2393    0.0000 C   0  0  0  0  0  0  0  0  0  0  0  0
   -6.8180    1.4913    0.0000 C   0  0  0  0  0  0  0  0  0  0  0  0
   -7.7755    0.3367    0.0000 C   0  0  0  0  0  0  0  0  0  0  0  0
   -7.2544   -1.0699    0.0000 C   0  0  0  0  0  0  0  0  0  0  0  0
   -5.7757   -1.3219    0.0000 C   0  0  0  0  0  0  0  0  0  0  0  0
   -5.2546   -2.7284    0.0000 Cl  0  0  0  0  0  0  0  0  0  0  0  0
   -9.2542    0.5887    0.0000 N   0  0  0  0  0  0  0  0  0  0  0  0
  -10.2118   -0.5659    0.0000 O   0  0  0  0  0  0  0  0  0  0  0  0
   -9.7753    1.9952    0.0000 O   0  0  0  0  0  0  0  0  0  0  0  0
  1  2  1  0
  2  3  1  0
  2  4  1  0
  4  5  1  0
  5  6  1  0
  5 21  1  0
  6  7  1  0
  7  8  2  0
  7  9  1  0
  9 10  1  0
  9 18  1  0
 10 11  1  0
 11 12  2  0
 11 13  1  0
 13 14  1  0
 14 15  1  0
 14 16  1  0
 14 17  1  0
 18 19  1  0
 18 20  1  0
 21 22  2  0
 21 23  1  0
 23 24  1  0
 24 25  1  0
 24 32  1  0
 25 26  1  0
 26 27  2  0
 26 31  1  0
 27 28  1  0
 28 29  2  0
 29 30  1  0
 30 31  2  0
 32 33  2  0
 32 34  1  0
 34 35  1  0
 35 36  2  0
 35 40  1  0
 36 37  1  0
 37 38  2  0
 38 39  1  0
 38 42  1  0
 39 40  2  0
 40 41  1  0
 42 43  2  0
 42 44  1  0
M  CHG  2  42   1  44  -1
M  END
>  <s_m_entry_id>  (386) 
909

>  <s_m_entry_name>  (386) 
3C-like_protease_GHDDI_ligprep.528

>  <s_m_Source_Path>  (386) 
/home/jgilaber/drug_learning/drug_learning/datasets/SAR1/GHDDI

>  <s_m_Source_File>  (386) 
3C-like_protease_GHDDI_ligprep.sdf

>  <i_m_Source_File_Index>  (386) 
528

>  <s_m_subgroup_title>  (386) 
3C-like_protease_GHDDI_ligprep

>  <s_m_subgroupid>  (386) 
3C-like_protease_GHDDI_ligprep

>  <b_m_subgroup_collapsed>  (386) 
0

$$$$
13884
     RDKit          2D

 36 40  0  0  1  0  0  0  0  0999 V2000
   -8.6609    2.8704    0.0000 O   0  0  0  0  0  0  0  0  0  0  0  0
   -7.7592    1.6716    0.0000 C   0  0  0  0  0  0  0  0  0  0  0  0
   -6.2703    1.8531    0.0000 C   0  0  0  0  0  0  0  0  0  0  0  0
   -5.3686    0.6543    0.0000 C   0  0  0  0  0  0  0  0  0  0  0  0
   -3.8796    0.8358    0.0000 O   0  0  0  0  0  0  0  0  0  0  0  0
   -5.9559   -0.7259    0.0000 C   0  0  0  0  0  0  0  0  0  0  0  0
   -5.0543   -1.9247    0.0000 O   0  0  0  0  0  0  0  0  0  0  0  0
   -3.5653   -1.7432    0.0000 C   0  0  0  0  0  0  0  0  0  0  0  0
   -2.6636   -2.9419    0.0000 C   0  0  0  0  0  0  0  0  0  0  0  0
   -1.1747   -2.7605    0.0000 C   0  0  0  0  0  0  0  0  0  0  0  0
   -0.2730   -3.9592    0.0000 O   0  0  0  0  0  0  0  0  0  0  0  0
   -0.5873   -1.3802    0.0000 C   0  0  0  0  0  0  0  0  0  0  0  0
    0.9017   -1.1988    0.0000 O   0  0  0  0  0  0  0  0  0  0  0  0
    1.4890    0.1815    0.0000 C   0  0  0  0  0  0  0  0  0  0  0  0
    2.9780    0.3630    0.0000 C   0  0  0  0  0  0  0  0  0  0  0  0
    3.8796   -0.8358    0.0000 O   0  0  0  0  0  0  0  0  0  0  0  0
    5.3686   -0.6543    0.0000 C   0  0  0  0  0  0  0  0  0  0  0  0
    5.9559    0.7259    0.0000 C   0  0  0  0  0  0  0  0  0  0  0  0
    7.4449    0.9074    0.0000 C   0  0  0  0  0  0  0  0  0  0  0  0
    8.0322    2.2876    0.0000 O   0  0  0  0  0  0  0  0  0  0  0  0
    8.3466   -0.2914    0.0000 C   0  0  0  0  0  0  0  0  0  0  0  0
    7.7592   -1.6716    0.0000 C   0  0  0  0  0  0  0  0  0  0  0  0
    8.6609   -2.8704    0.0000 O   0  0  0  0  0  0  0  0  0  0  0  0
    6.2703   -1.8531    0.0000 C   0  0  0  0  0  0  0  0  0  0  0  0
    3.5653    1.7432    0.0000 C   0  0  0  0  0  0  0  0  0  0  0  0
    5.0543    1.9247    0.0000 O   0  0  0  0  0  0  0  0  0  0  0  0
    2.6636    2.9419    0.0000 C   0  0  0  0  0  0  0  0  0  0  0  0
    1.1747    2.7605    0.0000 C   0  0  0  0  0  0  0  0  0  0  0  0
    0.2730    3.9592    0.0000 O   0  0  0  0  0  0  0  0  0  0  0  0
    0.5873    1.3802    0.0000 C   0  0  0  0  0  0  0  0  0  0  0  0
   -0.9017    1.1988    0.0000 O   0  0  0  0  0  0  0  0  0  0  0  0
   -1.4890   -0.1815    0.0000 C   0  0  0  0  0  0  0  0  0  0  0  0
   -2.9780   -0.3630    0.0000 C   0  0  0  0  0  0  0  0  0  0  0  0
   -7.4449   -0.9074    0.0000 C   0  0  0  0  0  0  0  0  0  0  0  0
   -8.0322   -2.2876    0.0000 O   0  0  0  0  0  0  0  0  0  0  0  0
   -8.3466    0.2914    0.0000 C   0  0  0  0  0  0  0  0  0  0  0  0
  1  2  1  0
  2  3  2  0
  2 36  1  0
  3  4  1  0
  4  5  1  0
  4  6  2  0
  6  7  1  0
  6 34  1  0
  7  8  1  0
  8  9  2  0
  8 33  1  0
  9 10  1  0
 10 11  1  0
 10 12  2  0
 12 13  1  0
 12 32  1  0
 13 14  1  0
 14 15  2  0
 14 30  1  0
 15 16  1  0
 15 25  1  0
 16 17  1  0
 17 18  2  0
 17 24  1  0
 18 19  1  0
 19 20  1  0
 19 21  2  0
 21 22  1  0
 22 23  1  0
 22 24  2  0
 25 26  1  0
 25 27  2  0
 27 28  1  0
 28 29  1  0
 28 30  2  0
 30 31  1  0
 31 32  1  0
 32 33  2  0
 34 35  1  0
 34 36  2  0
M  END
>  <s_m_entry_id>  (387) 
910

>  <s_m_entry_name>  (387) 
3C-like_protease_GHDDI_ligprep.529

>  <s_m_Source_Path>  (387) 
/home/jgilaber/drug_learning/drug_learning/datasets/SAR1/GHDDI

>  <s_m_Source_File>  (387) 
3C-like_protease_GHDDI_ligprep.sdf

>  <i_m_Source_File_Index>  (387) 
529

>  <s_m_subgroup_title>  (387) 
3C-like_protease_GHDDI_ligprep

>  <s_m_subgroupid>  (387) 
3C-like_protease_GHDDI_ligprep

>  <b_m_subgroup_collapsed>  (387) 
0

$$$$
13885
     RDKit          2D

 32 34  0  0  1  0  0  0  0  0999 V2000
   -4.0699   -3.8267    0.0000 C   0  0  0  0  0  0  0  0  0  0  0  0
   -4.1645   -2.3297    0.0000 O   0  0  0  0  0  0  0  0  0  0  0  0
   -5.5082   -1.6631    0.0000 C   0  0  0  0  0  0  0  0  0  0  0  0
   -6.7574   -2.4935    0.0000 C   0  0  0  0  0  0  0  0  0  0  0  0
   -8.1011   -1.8269    0.0000 C   0  0  0  0  0  0  0  0  0  0  0  0
   -9.3503   -2.6573    0.0000 N   0  0  0  0  0  0  0  0  0  0  0  0
   -8.1957   -0.3299    0.0000 C   0  0  0  0  0  0  0  0  0  0  0  0
   -9.5394    0.3367    0.0000 Cl  0  0  0  0  0  0  0  0  0  0  0  0
   -6.9465    0.5005    0.0000 C   0  0  0  0  0  0  0  0  0  0  0  0
   -5.6028   -0.1661    0.0000 C   0  0  0  0  0  0  0  0  0  0  0  0
   -4.3536    0.6643    0.0000 C   0  0  0  0  0  0  0  0  0  0  0  0
   -4.4482    2.1613    0.0000 O   0  0  0  0  0  0  0  0  0  0  0  0
   -3.0099   -0.0023    0.0000 N   0  0  0  0  0  0  0  0  0  0  0  0
   -1.7607    0.8281    0.0000 C   0  0  0  0  0  0  0  0  0  0  0  0
   -0.4170    0.1615    0.0000 C   0  0  0  0  0  0  0  0  0  0  0  0
    0.8322    0.9919    0.0000 C   0  0  0  0  0  0  0  0  0  0  0  0
    0.7376    2.4890    0.0000 N   0  0  0  0  0  0  0  0  0  0  0  0
    1.9868    3.3194    0.0000 C   0  0  0  0  0  0  0  0  0  0  0  0
    3.3305    2.6528    0.0000 C   0  0  0  0  0  0  0  0  0  0  0  0
    3.4251    1.1558    0.0000 C   0  0  0  0  0  0  0  0  0  0  0  0
    4.7689    0.4891    0.0000 C   0  0  0  0  0  0  0  0  0  0  0  0
    6.0180    1.3196    0.0000 N   0  0  0  0  0  0  0  0  0  0  0  0
    7.3618    0.6530    0.0000 C   0  0  0  0  0  0  0  0  0  0  0  0
    7.4563   -0.8441    0.0000 C   0  0  0  0  0  0  0  0  0  0  0  0
    8.8001   -1.5107    0.0000 C   0  0  0  0  0  0  0  0  0  0  0  0
    8.8946   -3.0077    0.0000 C   0  0  0  0  0  0  0  0  0  0  0  0
   10.2384   -3.6743    0.0000 C   0  0  0  0  0  0  0  0  0  0  0  0
   10.3330   -5.1713    0.0000 N   0  0  0  0  0  0  0  0  0  0  0  0
    5.9234    2.8166    0.0000 C   0  0  0  0  0  0  0  0  0  0  0  0
    4.5797    3.4832    0.0000 C   0  0  0  0  0  0  0  0  0  0  0  0
   -0.6061    3.1556    0.0000 C   0  0  0  0  0  0  0  0  0  0  0  0
   -1.8553    2.3252    0.0000 C   0  0  0  0  0  0  0  0  0  0  0  0
  1  2  1  0
  2  3  1  0
  3  4  2  0
  3 10  1  0
  4  5  1  0
  5  6  1  0
  5  7  2  0
  7  8  1  0
  7  9  1  0
  9 10  2  0
 10 11  1  0
 11 12  2  0
 11 13  1  0
 13 14  1  0
 14 15  1  0
 14 32  1  0
 15 16  1  0
 16 17  1  0
 17 18  1  0
 17 31  1  0
 18 19  1  0
 19 20  1  0
 19 30  1  0
 20 21  1  0
 21 22  1  0
 22 23  1  0
 22 29  1  0
 23 24  1  0
 24 25  1  0
 25 26  1  0
 26 27  1  0
 27 28  1  0
 29 30  1  0
 31 32  1  0
M  CHG  3  17   1  22   1  28   1
M  END
>  <s_m_entry_id>  (388) 
911

>  <s_m_entry_name>  (388) 
3C-like_protease_GHDDI_ligprep.530

>  <s_m_Source_Path>  (388) 
/home/jgilaber/drug_learning/drug_learning/datasets/SAR1/GHDDI

>  <s_m_Source_File>  (388) 
3C-like_protease_GHDDI_ligprep.sdf

>  <i_m_Source_File_Index>  (388) 
530

>  <s_m_subgroup_title>  (388) 
3C-like_protease_GHDDI_ligprep

>  <s_m_subgroupid>  (388) 
3C-like_protease_GHDDI_ligprep

>  <b_m_subgroup_collapsed>  (388) 
0

$$$$
13886
     RDKit          2D

 36 38  0  0  1  0  0  0  0  0999 V2000
   -4.6982   -5.1806    0.0000 F   0  0  0  0  0  0  0  0  0  0  0  0
   -4.1368   -3.7896    0.0000 C   0  0  0  0  0  0  0  0  0  0  0  0
   -5.5277   -3.2282    0.0000 F   0  0  0  0  0  0  0  0  0  0  0  0
   -2.7458   -4.3510    0.0000 F   0  0  0  0  0  0  0  0  0  0  0  0
   -3.5753   -2.3986    0.0000 C   0  0  0  0  0  0  0  0  0  0  0  0
   -4.4992   -1.2169    0.0000 O   0  0  0  0  0  0  0  0  0  0  0  0
   -2.0900   -2.1894    0.0000 C   0  0  0  0  0  0  0  0  0  0  0  0
   -1.1661   -3.3711    0.0000 C   0  0  0  0  0  0  0  0  0  0  0  0
    0.3192   -3.1618    0.0000 C   0  0  0  0  0  0  0  0  0  0  0  0
    1.2431   -4.3435    0.0000 C   0  0  0  0  0  0  0  0  0  0  0  0
    2.7284   -4.1343    0.0000 C   0  0  0  0  0  0  0  0  0  0  0  0
    3.2899   -2.7433    0.0000 C   0  0  0  0  0  0  0  0  0  0  0  0
    2.3660   -1.5616    0.0000 C   0  0  0  0  0  0  0  0  0  0  0  0
    0.8807   -1.7708    0.0000 C   0  0  0  0  0  0  0  0  0  0  0  0
   -1.5286   -0.7984    0.0000 N   0  0  0  0  0  0  0  0  0  0  0  0
   -2.4525    0.3833    0.0000 C   0  0  0  0  0  0  0  0  0  0  0  0
   -3.9378    0.1740    0.0000 O   0  0  0  0  0  0  0  0  0  0  0  0
   -1.8910    1.7743    0.0000 C   0  0  0  0  0  0  0  0  0  0  0  0
   -2.8149    2.9560    0.0000 C   0  0  0  0  0  0  0  0  0  0  0  0
   -2.2535    4.3469    0.0000 C   0  0  0  0  0  0  0  0  0  0  0  0
   -0.7681    4.5562    0.0000 C   0  0  0  0  0  0  0  0  0  0  0  0
   -0.2067    5.9472    0.0000 C   0  0  0  0  0  0  0  0  0  0  0  0
   -1.1306    7.1289    0.0000 C   0  0  0  0  0  0  0  0  0  0  0  0
   -2.6159    6.9196    0.0000 C   0  0  0  0  0  0  0  0  0  0  0  0
   -3.1774    5.5286    0.0000 C   0  0  0  0  0  0  0  0  0  0  0  0
   -0.4057    1.9835    0.0000 N   0  0  0  0  0  0  0  0  0  0  0  0
    0.5182    0.8018    0.0000 C   0  0  0  0  0  0  0  0  0  0  0  0
   -0.0432   -0.5891    0.0000 O   0  0  0  0  0  0  0  0  0  0  0  0
    2.0035    1.0111    0.0000 O   0  0  0  0  0  0  0  0  0  0  0  0
    2.9274   -0.1706    0.0000 C   0  0  0  0  0  0  0  0  0  0  0  0
    4.4128    0.0386    0.0000 C   0  0  0  0  0  0  0  0  0  0  0  0
    4.9742    1.4296    0.0000 C   0  0  0  0  0  0  0  0  0  0  0  0
    6.4595    1.6389    0.0000 C   0  0  0  0  0  0  0  0  0  0  0  0
    7.3834    0.4572    0.0000 C   0  0  0  0  0  0  0  0  0  0  0  0
    6.8220   -0.9338    0.0000 C   0  0  0  0  0  0  0  0  0  0  0  0
    5.3367   -1.1431    0.0000 C   0  0  0  0  0  0  0  0  0  0  0  0
  1  2  1  0
  2  3  1  0
  2  4  1  0
  2  5  1  0
  5  6  2  0
  5  7  1  0
  7  8  1  0
  7 15  1  0
  8  9  1  0
  9 10  2  0
  9 14  1  0
 10 11  1  0
 11 12  2  0
 12 13  1  0
 13 14  2  0
 15 16  1  0
 16 17  2  0
 16 18  1  0
 18 19  1  0
 18 26  1  0
 19 20  1  0
 20 21  2  0
 20 25  1  0
 21 22  1  0
 22 23  2  0
 23 24  1  0
 24 25  2  0
 26 27  1  0
 27 28  2  0
 27 29  1  0
 29 30  1  0
 30 31  1  0
 31 32  2  0
 31 36  1  0
 32 33  1  0
 33 34  2  0
 34 35  1  0
 35 36  2  0
M  END
>  <s_m_entry_id>  (389) 
916

>  <s_m_entry_name>  (389) 
3C-like_protease_GHDDI_ligprep.535

>  <s_m_Source_Path>  (389) 
/home/jgilaber/drug_learning/drug_learning/datasets/SAR1/GHDDI

>  <s_m_Source_File>  (389) 
3C-like_protease_GHDDI_ligprep.sdf

>  <i_m_Source_File_Index>  (389) 
535

>  <s_m_subgroup_title>  (389) 
3C-like_protease_GHDDI_ligprep

>  <s_m_subgroupid>  (389) 
3C-like_protease_GHDDI_ligprep

>  <b_m_subgroup_collapsed>  (389) 
0

$$$$
13887
     RDKit          2D

 33 36  0  0  1  0  0  0  0  0999 V2000
   -5.4634   -3.4111    0.0000 C   0  0  0  0  0  0  0  0  0  0  0  0
   -3.9823   -3.6485    0.0000 C   0  0  0  0  0  0  0  0  0  0  0  0
   -2.5012   -3.8858    0.0000 C   0  0  0  0  0  0  0  0  0  0  0  0
   -4.2196   -5.1296    0.0000 C   0  0  0  0  0  0  0  0  0  0  0  0
   -3.7449   -2.1673    0.0000 N   0  0  0  0  0  0  0  0  0  0  0  0
   -2.3436   -1.6323    0.0000 C   0  0  0  0  0  0  0  0  0  0  0  0
   -1.1796   -2.5785    0.0000 O   0  0  0  0  0  0  0  0  0  0  0  0
   -2.1062   -0.1512    0.0000 C   0  0  0  0  0  0  0  0  0  0  0  0
   -0.7049    0.3838    0.0000 N   0  0  0  0  0  0  0  0  0  0  0  0
    0.4591   -0.5623    0.0000 C   0  0  0  0  0  0  0  0  0  0  0  0
    0.2218   -2.0434    0.0000 O   0  0  0  0  0  0  0  0  0  0  0  0
    1.8605   -0.0273    0.0000 C   0  0  0  0  0  0  0  0  0  0  0  0
    3.0245   -0.9734    0.0000 N   0  0  0  0  0  0  0  0  0  0  0  0
    2.9432   -2.4712    0.0000 N   0  0  0  0  0  0  0  0  0  0  0  0
    4.3426   -3.0113    0.0000 N   0  0  0  0  0  0  0  0  0  0  0  0
    5.2887   -1.8473    0.0000 C   0  0  0  0  0  0  0  0  0  0  0  0
    6.7868   -1.7716    0.0000 C   0  0  0  0  0  0  0  0  0  0  0  0
    7.4702   -0.4363    0.0000 C   0  0  0  0  0  0  0  0  0  0  0  0
    6.6555    0.8232    0.0000 C   0  0  0  0  0  0  0  0  0  0  0  0
    5.1575    0.7474    0.0000 C   0  0  0  0  0  0  0  0  0  0  0  0
    4.4740   -0.5879    0.0000 C   0  0  0  0  0  0  0  0  0  0  0  0
   -0.4675    1.8649    0.0000 C   0  0  0  0  0  0  0  0  0  0  0  0
    0.9338    2.3999    0.0000 C   0  0  0  0  0  0  0  0  0  0  0  0
    1.1712    3.8810    0.0000 C   0  0  0  0  0  0  0  0  0  0  0  0
    0.0072    4.8271    0.0000 C   0  0  0  0  0  0  0  0  0  0  0  0
    0.2445    6.3082    0.0000 N   0  0  0  0  0  0  0  0  0  0  0  0
   -1.3942    4.2921    0.0000 C   0  0  0  0  0  0  0  0  0  0  0  0
   -1.6315    2.8110    0.0000 C   0  0  0  0  0  0  0  0  0  0  0  0
   -3.2702    0.7949    0.0000 C   0  0  0  0  0  0  0  0  0  0  0  0
   -4.7198    0.4093    0.0000 C   0  0  0  0  0  0  0  0  0  0  0  0
   -5.5345    1.6688    0.0000 C   0  0  0  0  0  0  0  0  0  0  0  0
   -4.5884    2.8328    0.0000 S   0  0  0  0  0  0  0  0  0  0  0  0
   -3.1890    2.2927    0.0000 C   0  0  0  0  0  0  0  0  0  0  0  0
  1  2  1  0
  2  3  1  0
  2  4  1  0
  2  5  1  0
  5  6  1  0
  6  7  2  0
  6  8  1  0
  8  9  1  0
  8 29  1  0
  9 10  1  0
  9 22  1  0
 10 11  2  0
 10 12  1  0
 12 13  1  0
 13 14  1  0
 13 21  1  0
 14 15  2  0
 15 16  1  0
 16 17  1  0
 16 21  2  0
 17 18  2  0
 18 19  1  0
 19 20  2  0
 20 21  1  0
 22 23  2  0
 22 28  1  0
 23 24  1  0
 24 25  2  0
 25 26  1  0
 25 27  1  0
 27 28  2  0
 29 30  1  0
 29 33  2  0
 30 31  2  0
 31 32  1  0
 32 33  1  0
M  END
>  <s_m_entry_id>  (390) 
918

>  <s_m_entry_name>  (390) 
3C-like_protease_GHDDI_ligprep.537

>  <s_m_Source_Path>  (390) 
/home/jgilaber/drug_learning/drug_learning/datasets/SAR1/GHDDI

>  <s_m_Source_File>  (390) 
3C-like_protease_GHDDI_ligprep.sdf

>  <i_m_Source_File_Index>  (390) 
537

>  <s_m_subgroup_title>  (390) 
3C-like_protease_GHDDI_ligprep

>  <s_m_subgroupid>  (390) 
3C-like_protease_GHDDI_ligprep

>  <b_m_subgroup_collapsed>  (390) 
0

$$$$
13888
     RDKit          2D

 45 47  0  0  1  0  0  0  0  0999 V2000
    1.0184   -7.2803    0.0000 C   0  0  0  0  0  0  0  0  0  0  0  0
    0.6371   -5.8296    0.0000 C   0  0  0  0  0  0  0  0  0  0  0  0
    1.7027   -4.7740    0.0000 C   0  0  0  0  0  0  0  0  0  0  0  0
   -0.8100   -5.4345    0.0000 C   0  0  0  0  0  0  0  0  0  0  0  0
   -1.1913   -3.9838    0.0000 C   0  0  0  0  0  0  0  0  0  0  0  0
   -2.6384   -3.5887    0.0000 C   0  0  0  0  0  0  0  0  0  0  0  0
   -3.0198   -2.1380    0.0000 C   0  0  0  0  0  0  0  0  0  0  0  0
   -1.9541   -1.0824    0.0000 O   0  0  0  0  0  0  0  0  0  0  0  0
   -4.4668   -1.7429    0.0000 C   0  0  0  0  0  0  0  0  0  0  0  0
   -4.8482   -0.2922    0.0000 N   0  0  0  0  0  0  0  0  0  0  0  0
   -3.7825    0.7634    0.0000 C   0  0  0  0  0  0  0  0  0  0  0  0
   -2.3355    0.3683    0.0000 O   0  0  0  0  0  0  0  0  0  0  0  0
   -4.1639    2.2141    0.0000 C   0  0  0  0  0  0  0  0  0  0  0  0
   -3.0982    3.2697    0.0000 C   0  0  0  0  0  0  0  0  0  0  0  0
   -3.4796    4.7205    0.0000 C   0  0  0  0  0  0  0  0  0  0  0  0
   -4.9266    5.1155    0.0000 C   0  0  0  0  0  0  0  0  0  0  0  0
   -5.9923    4.0599    0.0000 C   0  0  0  0  0  0  0  0  0  0  0  0
   -5.6109    2.6092    0.0000 C   0  0  0  0  0  0  0  0  0  0  0  0
   -5.5325   -2.7986    0.0000 C   0  0  0  0  0  0  0  0  0  0  0  0
   -5.1511   -4.2493    0.0000 C   0  0  0  0  0  0  0  0  0  0  0  0
   -6.9795   -2.4035    0.0000 C   0  0  0  0  0  0  0  0  0  0  0  0
   -0.1257   -2.9282    0.0000 C   0  0  0  0  0  0  0  0  0  0  0  0
   -0.5070   -1.4775    0.0000 O   0  0  0  0  0  0  0  0  0  0  0  0
    1.3214   -3.3233    0.0000 N   0  0  0  0  0  0  0  0  0  0  0  0
    2.3870   -2.2676    0.0000 C   0  0  0  0  0  0  0  0  0  0  0  0
    3.8341   -2.6627    0.0000 C   0  0  0  0  0  0  0  0  0  0  0  0
    4.8997   -1.6071    0.0000 C   0  0  0  0  0  0  0  0  0  0  0  0
    6.3468   -2.0022    0.0000 C   0  0  0  0  0  0  0  0  0  0  0  0
    7.4124   -0.9465    0.0000 C   0  0  0  0  0  0  0  0  0  0  0  0
    7.0311    0.5042    0.0000 C   0  0  0  0  0  0  0  0  0  0  0  0
    5.5840    0.8993    0.0000 C   0  0  0  0  0  0  0  0  0  0  0  0
    4.5184   -0.1564    0.0000 C   0  0  0  0  0  0  0  0  0  0  0  0
    2.0057   -0.8169    0.0000 C   0  0  0  0  0  0  0  0  0  0  0  0
    0.5586   -0.4218    0.0000 O   0  0  0  0  0  0  0  0  0  0  0  0
    3.0713    0.2387    0.0000 N   0  0  0  0  0  0  0  0  0  0  0  0
    2.6900    1.6894    0.0000 C   0  0  0  0  0  0  0  0  0  0  0  0
    3.7556    2.7451    0.0000 C   0  0  0  0  0  0  0  0  0  0  0  0
    3.3743    4.1958    0.0000 C   0  0  0  0  0  0  0  0  0  0  0  0
    1.9272    4.5908    0.0000 C   0  0  0  0  0  0  0  0  0  0  0  0
    0.8616    3.5352    0.0000 C   0  0  0  0  0  0  0  0  0  0  0  0
    1.2429    2.0845    0.0000 C   0  0  0  0  0  0  0  0  0  0  0  0
    0.1773    1.0289    0.0000 Cl  0  0  0  0  0  0  0  0  0  0  0  0
    1.5459    6.0416    0.0000 N   0  0  0  0  0  0  0  0  0  0  0  0
    0.0988    6.4366    0.0000 O   0  0  0  0  0  0  0  0  0  0  0  0
    2.6115    7.0972    0.0000 O   0  0  0  0  0  0  0  0  0  0  0  0
  1  2  1  0
  2  3  1  0
  2  4  1  0
  4  5  1  0
  5  6  1  0
  5 22  1  0
  6  7  1  0
  7  8  2  0
  7  9  1  0
  9 10  1  0
  9 19  1  0
 10 11  1  0
 11 12  2  0
 11 13  1  0
 13 14  2  0
 13 18  1  0
 14 15  1  0
 15 16  2  0
 16 17  1  0
 17 18  2  0
 19 20  1  0
 19 21  1  0
 22 23  2  0
 22 24  1  0
 24 25  1  0
 25 26  1  0
 25 33  1  0
 26 27  1  0
 27 28  2  0
 27 32  1  0
 28 29  1  0
 29 30  2  0
 30 31  1  0
 31 32  2  0
 33 34  2  0
 33 35  1  0
 35 36  1  0
 36 37  2  0
 36 41  1  0
 37 38  1  0
 38 39  2  0
 39 40  1  0
 39 43  1  0
 40 41  2  0
 41 42  1  0
 43 44  2  0
 43 45  1  0
M  CHG  2  43   1  45  -1
M  END
>  <s_m_entry_id>  (391) 
920

>  <s_m_entry_name>  (391) 
3C-like_protease_GHDDI_ligprep.539

>  <s_m_Source_Path>  (391) 
/home/jgilaber/drug_learning/drug_learning/datasets/SAR1/GHDDI

>  <s_m_Source_File>  (391) 
3C-like_protease_GHDDI_ligprep.sdf

>  <i_m_Source_File_Index>  (391) 
539

>  <s_m_subgroup_title>  (391) 
3C-like_protease_GHDDI_ligprep

>  <s_m_subgroupid>  (391) 
3C-like_protease_GHDDI_ligprep

>  <b_m_subgroup_collapsed>  (391) 
0

$$$$
13890
     RDKit          2D

 43 45  0  0  1  0  0  0  0  0999 V2000
   -8.4447    0.1245    0.0000 C   0  0  0  0  0  0  0  0  0  0  0  0
   -7.5384   -1.0708    0.0000 C   0  0  0  0  0  0  0  0  0  0  0  0
   -6.0501   -0.8836    0.0000 O   0  0  0  0  0  0  0  0  0  0  0  0
   -5.1439   -2.0789    0.0000 C   0  0  0  0  0  0  0  0  0  0  0  0
   -5.7259   -3.4613    0.0000 O   0  0  0  0  0  0  0  0  0  0  0  0
   -3.6556   -1.8917    0.0000 C   0  0  0  0  0  0  0  0  0  0  0  0
   -2.7494   -3.0870    0.0000 C   0  0  0  0  0  0  0  0  0  0  0  0
   -1.2611   -2.8998    0.0000 C   0  0  0  0  0  0  0  0  0  0  0  0
   -0.3549   -4.0951    0.0000 C   0  0  0  0  0  0  0  0  0  0  0  0
    1.1334   -3.9079    0.0000 C   0  0  0  0  0  0  0  0  0  0  0  0
    2.0397   -5.1032    0.0000 C   0  0  0  0  0  0  0  0  0  0  0  0
    3.5279   -4.9160    0.0000 C   0  0  0  0  0  0  0  0  0  0  0  0
    4.1100   -3.5335    0.0000 C   0  0  0  0  0  0  0  0  0  0  0  0
    3.2037   -2.3382    0.0000 C   0  0  0  0  0  0  0  0  0  0  0  0
    1.7154   -2.5254    0.0000 C   0  0  0  0  0  0  0  0  0  0  0  0
   -0.6791   -1.5173    0.0000 N   0  0  0  0  0  0  0  0  0  0  0  0
   -1.5853   -0.3220    0.0000 C   0  0  0  0  0  0  0  0  0  0  0  0
   -3.0736   -0.5092    0.0000 O   0  0  0  0  0  0  0  0  0  0  0  0
   -1.0033    1.0605    0.0000 C   0  0  0  0  0  0  0  0  0  0  0  0
   -1.9095    2.2558    0.0000 C   0  0  0  0  0  0  0  0  0  0  0  0
   -3.3978    2.0686    0.0000 C   0  0  0  0  0  0  0  0  0  0  0  0
   -3.9798    0.6861    0.0000 C   0  0  0  0  0  0  0  0  0  0  0  0
   -5.4681    0.4989    0.0000 C   0  0  0  0  0  0  0  0  0  0  0  0
   -6.3744    1.6942    0.0000 C   0  0  0  0  0  0  0  0  0  0  0  0
   -7.8626    1.5070    0.0000 F   0  0  0  0  0  0  0  0  0  0  0  0
   -5.7923    3.0767    0.0000 C   0  0  0  0  0  0  0  0  0  0  0  0
   -4.3041    3.2639    0.0000 C   0  0  0  0  0  0  0  0  0  0  0  0
    0.4850    1.2477    0.0000 N   0  0  0  0  0  0  0  0  0  0  0  0
    1.0670    2.6301    0.0000 C   0  0  0  0  0  0  0  0  0  0  0  0
    0.1608    3.8254    0.0000 O   0  0  0  0  0  0  0  0  0  0  0  0
    2.5553    2.8173    0.0000 C   0  0  0  0  0  0  0  0  0  0  0  0
    3.4615    1.6220    0.0000 N   0  0  0  0  0  0  0  0  0  0  0  0
    4.9498    1.8092    0.0000 C   0  0  0  0  0  0  0  0  0  0  0  0
    5.5318    3.1917    0.0000 O   0  0  0  0  0  0  0  0  0  0  0  0
    5.8560    0.6139    0.0000 C   0  0  0  0  0  0  0  0  0  0  0  0
    7.3557    0.6445    0.0000 C   0  0  0  0  0  0  0  0  0  0  0  0
    7.8483   -0.7723    0.0000 C   0  0  0  0  0  0  0  0  0  0  0  0
    9.2840   -1.2066    0.0000 C   0  0  0  0  0  0  0  0  0  0  0  0
    6.6530   -1.6786    0.0000 O   0  0  0  0  0  0  0  0  0  0  0  0
    5.4217   -0.8218    0.0000 N   0  0  0  0  0  0  0  0  0  0  0  0
    3.1373    4.1998    0.0000 C   0  0  0  0  0  0  0  0  0  0  0  0
    4.6256    4.3870    0.0000 C   0  0  0  0  0  0  0  0  0  0  0  0
    2.2311    5.3951    0.0000 C   0  0  0  0  0  0  0  0  0  0  0  0
  1  2  1  0
  2  3  1  0
  3  4  1  0
  4  5  2  0
  4  6  1  0
  6  7  2  0
  7  8  1  0
  8  9  1  0
  8 16  1  0
  9 10  1  0
 10 11  2  0
 10 15  1  0
 11 12  1  0
 12 13  2  0
 13 14  1  0
 14 15  2  0
 16 17  1  0
 17 18  2  0
 17 19  1  0
 19 20  1  0
 19 28  1  0
 20 21  1  0
 21 22  2  0
 21 27  1  0
 22 23  1  0
 23 24  2  0
 24 25  1  0
 24 26  1  0
 26 27  2  0
 28 29  1  0
 29 30  2  0
 29 31  1  0
 31 32  1  0
 31 41  1  0
 32 33  1  0
 33 34  2  0
 33 35  1  0
 35 36  1  0
 35 40  2  0
 36 37  2  0
 37 38  1  0
 37 39  1  0
 39 40  1  0
 41 42  1  0
 41 43  1  0
M  END
>  <s_m_entry_id>  (392) 
922

>  <s_m_entry_name>  (392) 
3C-like_protease_GHDDI_ligprep.541

>  <s_m_Source_Path>  (392) 
/home/jgilaber/drug_learning/drug_learning/datasets/SAR1/GHDDI

>  <s_m_Source_File>  (392) 
3C-like_protease_GHDDI_ligprep.sdf

>  <i_m_Source_File_Index>  (392) 
541

>  <s_m_subgroup_title>  (392) 
3C-like_protease_GHDDI_ligprep

>  <s_m_subgroupid>  (392) 
3C-like_protease_GHDDI_ligprep

>  <b_m_subgroup_collapsed>  (392) 
0

$$$$
13891
     RDKit          2D

 22 24  0  0  1  0  0  0  0  0999 V2000
    8.0939   -0.4819    0.0000 C   0  0  0  0  0  0  0  0  0  0  0  0
    6.9972    0.5414    0.0000 C   0  0  0  0  0  0  0  0  0  0  0  0
    5.5626    0.1032    0.0000 C   0  0  0  0  0  0  0  0  0  0  0  0
    5.2248   -1.3583    0.0000 C   0  0  0  0  0  0  0  0  0  0  0  0
    3.7902   -1.7965    0.0000 C   0  0  0  0  0  0  0  0  0  0  0  0
    2.6935   -0.7732    0.0000 C   0  0  0  0  0  0  0  0  0  0  0  0
    1.2589   -1.2114    0.0000 C   0  0  0  0  0  0  0  0  0  0  0  0
    0.1621   -0.1882    0.0000 C   0  0  0  0  0  0  0  0  0  0  0  0
   -1.2724   -0.6264    0.0000 N   0  0  0  0  0  0  0  0  0  0  0  0
   -2.3692    0.3969    0.0000 C   0  0  0  0  0  0  0  0  0  0  0  0
   -2.0315    1.8583    0.0000 O   0  0  0  0  0  0  0  0  0  0  0  0
   -3.8038   -0.0413    0.0000 C   0  0  0  0  0  0  0  0  0  0  0  0
   -4.2925   -1.4595    0.0000 N   0  0  0  0  0  0  0  0  0  0  0  0
   -5.7923   -1.4330    0.0000 C   0  0  0  0  0  0  0  0  0  0  0  0
   -6.9900   -0.5299    0.0000 C   0  0  0  0  0  0  0  0  0  0  0  0
   -6.5013    0.8882    0.0000 C   0  0  0  0  0  0  0  0  0  0  0  0
   -5.0015    0.8617    0.0000 C   0  0  0  0  0  0  0  0  0  0  0  0
   -4.5633   -0.5729    0.0000 C   0  0  0  0  0  0  0  0  0  0  0  0
    0.4999    1.2733    0.0000 C   0  0  0  0  0  0  0  0  0  0  0  0
    0.8377    2.7348    0.0000 N   0  0  0  0  0  0  0  0  0  0  0  0
    3.0312    0.6882    0.0000 C   0  0  0  0  0  0  0  0  0  0  0  0
    4.4658    1.1265    0.0000 C   0  0  0  0  0  0  0  0  0  0  0  0
  1  2  1  0
  2  3  1  0
  3  4  2  0
  3 22  1  0
  4  5  1  0
  5  6  2  0
  6  7  1  0
  6 21  1  0
  7  8  1  0
  8  9  1  0
  8 19  1  0
  9 10  1  0
 10 11  2  0
 10 12  1  0
 12 13  1  0
 12 17  1  0
 13 14  1  0
 14 15  1  0
 14 18  1  0
 15 16  1  0
 16 17  1  0
 17 18  1  0
 19 20  3  0
 21 22  2  0
M  CHG  1  13   1
M  END
>  <s_m_entry_id>  (393) 
923

>  <s_m_entry_name>  (393) 
3C-like_protease_GHDDI_ligprep.542

>  <s_m_Source_Path>  (393) 
/home/jgilaber/drug_learning/drug_learning/datasets/SAR1/GHDDI

>  <s_m_Source_File>  (393) 
3C-like_protease_GHDDI_ligprep.sdf

>  <i_m_Source_File_Index>  (393) 
542

>  <s_m_subgroup_title>  (393) 
3C-like_protease_GHDDI_ligprep

>  <s_m_subgroupid>  (393) 
3C-like_protease_GHDDI_ligprep

>  <b_m_subgroup_collapsed>  (393) 
0

$$$$
13892
     RDKit          2D

 25 28  0  0  1  0  0  0  0  0999 V2000
   -7.0527    0.2546    0.0000 C   0  0  0  0  0  0  0  0  0  0  0  0
   -5.5823    0.5509    0.0000 O   0  0  0  0  0  0  0  0  0  0  0  0
   -4.5905   -0.5745    0.0000 C   0  0  0  0  0  0  0  0  0  0  0  0
   -5.0691   -1.9960    0.0000 O   0  0  0  0  0  0  0  0  0  0  0  0
   -3.1200   -0.2782    0.0000 C   0  0  0  0  0  0  0  0  0  0  0  0
   -3.0836   -1.7778    0.0000 C   0  0  0  0  0  0  0  0  0  0  0  0
   -3.6671    1.1185    0.0000 C   0  0  0  0  0  0  0  0  0  0  0  0
   -2.7311    2.2906    0.0000 C   0  0  0  0  0  0  0  0  0  0  0  0
   -1.2480    2.0661    0.0000 C   0  0  0  0  0  0  0  0  0  0  0  0
   -0.7009    0.6694    0.0000 C   0  0  0  0  0  0  0  0  0  0  0  0
    0.7822    0.4449    0.0000 C   0  0  0  0  0  0  0  0  0  0  0  0
    1.7182    1.6170    0.0000 C   0  0  0  0  0  0  0  0  0  0  0  0
    1.1711    3.0137    0.0000 O   0  0  0  0  0  0  0  0  0  0  0  0
    3.2013    1.3925    0.0000 C   0  0  0  0  0  0  0  0  0  0  0  0
    4.1373    2.5646    0.0000 O   0  0  0  0  0  0  0  0  0  0  0  0
    3.7484   -0.0042    0.0000 C   0  0  0  0  0  0  0  0  0  0  0  0
    5.1524   -0.5321    0.0000 C   0  0  0  0  0  0  0  0  0  0  0  0
    6.4048    0.2934    0.0000 C   0  0  0  0  0  0  0  0  0  0  0  0
    5.0841   -2.0306    0.0000 C   0  0  0  0  0  0  0  0  0  0  0  0
    3.6379   -2.4287    0.0000 O   0  0  0  0  0  0  0  0  0  0  0  0
    2.8124   -1.1763    0.0000 C   0  0  0  0  0  0  0  0  0  0  0  0
    1.3293   -0.9518    0.0000 C   0  0  0  0  0  0  0  0  0  0  0  0
    0.3933   -2.1239    0.0000 C   0  0  0  0  0  0  0  0  0  0  0  0
   -1.0898   -1.8994    0.0000 C   0  0  0  0  0  0  0  0  0  0  0  0
   -1.6369   -0.5027    0.0000 C   0  0  0  0  0  0  0  0  0  0  0  0
  1  2  1  0
  2  3  1  0
  3  4  2  0
  3  5  1  0
  5  6  1  0
  5  7  1  0
  5 25  1  0
  7  8  1  0
  8  9  1  0
  9 10  1  0
 10 11  1  0
 10 25  2  0
 11 12  1  0
 11 22  2  0
 12 13  2  0
 12 14  1  0
 14 15  2  0
 14 16  1  0
 16 17  1  0
 16 21  2  0
 17 18  1  0
 17 19  2  0
 19 20  1  0
 20 21  1  0
 21 22  1  0
 22 23  1  0
 23 24  2  0
 24 25  1  0
M  END
>  <s_m_entry_id>  (394) 
924

>  <s_m_entry_name>  (394) 
3C-like_protease_GHDDI_ligprep.543

>  <s_m_Source_Path>  (394) 
/home/jgilaber/drug_learning/drug_learning/datasets/SAR1/GHDDI

>  <s_m_Source_File>  (394) 
3C-like_protease_GHDDI_ligprep.sdf

>  <i_m_Source_File_Index>  (394) 
543

>  <s_m_subgroup_title>  (394) 
3C-like_protease_GHDDI_ligprep

>  <s_m_subgroupid>  (394) 
3C-like_protease_GHDDI_ligprep

>  <b_m_subgroup_collapsed>  (394) 
0

$$$$
13893
     RDKit          2D

 21 23  0  0  1  0  0  0  0  0999 V2000
   -5.0049    2.0636    0.0000 C   0  0  0  0  0  0  0  0  0  0  0  0
   -4.5139    0.6462    0.0000 C   0  0  0  0  0  0  0  0  0  0  0  0
   -5.4959   -0.4877    0.0000 C   0  0  0  0  0  0  0  0  0  0  0  0
   -3.0410    0.3627    0.0000 C   0  0  0  0  0  0  0  0  0  0  0  0
   -2.0590    1.4966    0.0000 C   0  0  0  0  0  0  0  0  0  0  0  0
   -0.5860    1.2132    0.0000 C   0  0  0  0  0  0  0  0  0  0  0  0
    0.3960    2.3470    0.0000 C   0  0  0  0  0  0  0  0  0  0  0  0
    1.8689    2.0636    0.0000 C   0  0  0  0  0  0  0  0  0  0  0  0
    2.3599    0.6462    0.0000 C   0  0  0  0  0  0  0  0  0  0  0  0
    1.3779   -0.4877    0.0000 C   0  0  0  0  0  0  0  0  0  0  0  0
    1.8689   -1.9051    0.0000 C   0  0  0  0  0  0  0  0  0  0  0  0
    3.3419   -2.1885    0.0000 C   0  0  0  0  0  0  0  0  0  0  0  0
    4.3239   -1.0547    0.0000 C   0  0  0  0  0  0  0  0  0  0  0  0
    3.8329    0.3627    0.0000 C   0  0  0  0  0  0  0  0  0  0  0  0
    3.8563    1.8625    0.0000 C   0  0  0  0  0  0  0  0  0  0  0  0
    5.3140    0.6001    0.0000 C   0  0  0  0  0  0  0  0  0  0  0  0
   -0.0950   -0.2042    0.0000 C   0  0  0  0  0  0  0  0  0  0  0  0
   -1.0770   -1.3381    0.0000 C   0  0  0  0  0  0  0  0  0  0  0  0
   -0.5860   -2.7555    0.0000 O   0  0  0  0  0  0  0  0  0  0  0  0
   -2.5500   -1.0546    0.0000 C   0  0  0  0  0  0  0  0  0  0  0  0
   -3.5320   -2.1885    0.0000 O   0  0  0  0  0  0  0  0  0  0  0  0
  1  2  1  0
  2  3  1  0
  2  4  1  0
  4  5  2  0
  4 20  1  0
  5  6  1  0
  6  7  1  0
  6 17  2  0
  7  8  2  0
  8  9  1  0
  9 10  2  0
  9 14  1  0
 10 11  1  0
 10 17  1  0
 11 12  1  0
 12 13  1  0
 13 14  1  0
 14 15  1  0
 14 16  1  0
 17 18  1  0
 18 19  2  0
 18 20  1  0
 20 21  2  0
M  END
>  <s_m_entry_id>  (395) 
926

>  <s_m_entry_name>  (395) 
3C-like_protease_GHDDI_ligprep.545

>  <s_m_Source_Path>  (395) 
/home/jgilaber/drug_learning/drug_learning/datasets/SAR1/GHDDI

>  <s_m_Source_File>  (395) 
3C-like_protease_GHDDI_ligprep.sdf

>  <i_m_Source_File_Index>  (395) 
545

>  <s_m_subgroup_title>  (395) 
3C-like_protease_GHDDI_ligprep

>  <s_m_subgroupid>  (395) 
3C-like_protease_GHDDI_ligprep

>  <b_m_subgroup_collapsed>  (395) 
0

$$$$
13895
     RDKit          2D

 34 38  0  0  1  0  0  0  0  0999 V2000
   -4.5459    1.8456    0.0000 O   0  0  0  0  0  0  0  0  0  0  0  0
   -3.1343    1.3384    0.0000 C   0  0  0  0  0  0  0  0  0  0  0  0
   -2.8678   -0.1378    0.0000 C   0  0  0  0  0  0  0  0  0  0  0  0
   -4.0129   -1.1066    0.0000 N   0  0  0  0  0  0  0  0  0  0  0  0
   -5.4698   -0.7497    0.0000 N   0  0  0  0  0  0  0  0  0  0  0  0
   -6.2595   -2.0250    0.0000 N   0  0  0  0  0  0  0  0  0  0  0  0
   -5.2906   -3.1701    0.0000 C   0  0  0  0  0  0  0  0  0  0  0  0
   -5.4933   -4.6564    0.0000 C   0  0  0  0  0  0  0  0  0  0  0  0
   -4.3075   -5.5750    0.0000 C   0  0  0  0  0  0  0  0  0  0  0  0
   -2.9191   -5.0074    0.0000 C   0  0  0  0  0  0  0  0  0  0  0  0
   -2.7164   -3.5212    0.0000 C   0  0  0  0  0  0  0  0  0  0  0  0
   -3.9022   -2.6025    0.0000 C   0  0  0  0  0  0  0  0  0  0  0  0
   -1.9892    2.3072    0.0000 N   0  0  0  0  0  0  0  0  0  0  0  0
   -2.2557    3.7834    0.0000 C   0  0  0  0  0  0  0  0  0  0  0  0
   -1.1106    4.7523    0.0000 C   0  0  0  0  0  0  0  0  0  0  0  0
   -1.2213    6.2482    0.0000 C   0  0  0  0  0  0  0  0  0  0  0  0
    0.1671    6.8158    0.0000 C   0  0  0  0  0  0  0  0  0  0  0  0
    1.1360    5.6706    0.0000 S   0  0  0  0  0  0  0  0  0  0  0  0
    0.3463    4.3953    0.0000 C   0  0  0  0  0  0  0  0  0  0  0  0
   -0.5776    1.8000    0.0000 C   0  0  0  0  0  0  0  0  0  0  0  0
   -0.3111    0.3239    0.0000 C   0  0  0  0  0  0  0  0  0  0  0  0
    1.1006   -0.1834    0.0000 C   0  0  0  0  0  0  0  0  0  0  0  0
    2.2457    0.7855    0.0000 C   0  0  0  0  0  0  0  0  0  0  0  0
    3.6573    0.2782    0.0000 N   0  0  0  0  0  0  0  0  0  0  0  0
    3.9238   -1.1979    0.0000 C   0  0  0  0  0  0  0  0  0  0  0  0
    2.7787   -2.1668    0.0000 O   0  0  0  0  0  0  0  0  0  0  0  0
    5.3354   -1.7052    0.0000 C   0  0  0  0  0  0  0  0  0  0  0  0
    5.6020   -3.1813    0.0000 C   0  0  0  0  0  0  0  0  0  0  0  0
    7.0136   -3.6886    0.0000 C   0  0  0  0  0  0  0  0  0  0  0  0
    8.1587   -2.7197    0.0000 C   0  0  0  0  0  0  0  0  0  0  0  0
    7.8922   -1.2436    0.0000 C   0  0  0  0  0  0  0  0  0  0  0  0
    6.4806   -0.7363    0.0000 C   0  0  0  0  0  0  0  0  0  0  0  0
    1.9792    2.2616    0.0000 C   0  0  0  0  0  0  0  0  0  0  0  0
    0.5676    2.7689    0.0000 C   0  0  0  0  0  0  0  0  0  0  0  0
  1  2  2  0
  2  3  1  0
  2 13  1  0
  3  4  1  0
  4  5  1  0
  4 12  1  0
  5  6  2  0
  6  7  1  0
  7  8  1  0
  7 12  2  0
  8  9  2  0
  9 10  1  0
 10 11  2  0
 11 12  1  0
 13 14  1  0
 13 20  1  0
 14 15  1  0
 15 16  1  0
 15 19  2  0
 16 17  2  0
 17 18  1  0
 18 19  1  0
 20 21  2  0
 20 34  1  0
 21 22  1  0
 22 23  2  0
 23 24  1  0
 23 33  1  0
 24 25  1  0
 25 26  2  0
 25 27  1  0
 27 28  1  0
 27 32  1  0
 28 29  1  0
 29 30  1  0
 30 31  1  0
 31 32  1  0
 33 34  2  0
M  END
>  <s_m_entry_id>  (396) 
928

>  <s_m_entry_name>  (396) 
3C-like_protease_GHDDI_ligprep.547

>  <s_m_Source_Path>  (396) 
/home/jgilaber/drug_learning/drug_learning/datasets/SAR1/GHDDI

>  <s_m_Source_File>  (396) 
3C-like_protease_GHDDI_ligprep.sdf

>  <i_m_Source_File_Index>  (396) 
547

>  <s_m_subgroup_title>  (396) 
3C-like_protease_GHDDI_ligprep

>  <s_m_subgroupid>  (396) 
3C-like_protease_GHDDI_ligprep

>  <b_m_subgroup_collapsed>  (396) 
0

$$$$
13896
     RDKit          2D

 44 46  0  0  1  0  0  0  0  0999 V2000
   -2.5133    4.7266    0.0000 C   0  0  0  0  0  0  0  0  0  0  0  0
   -1.9440    3.3388    0.0000 C   0  0  0  0  0  0  0  0  0  0  0  0
   -2.8612    2.1519    0.0000 C   0  0  0  0  0  0  0  0  0  0  0  0
   -0.4576    3.1379    0.0000 C   0  0  0  0  0  0  0  0  0  0  0  0
    0.1117    1.7502    0.0000 C   0  0  0  0  0  0  0  0  0  0  0  0
    1.5982    1.5493    0.0000 C   0  0  0  0  0  0  0  0  0  0  0  0
    2.5154    2.7362    0.0000 C   0  0  0  0  0  0  0  0  0  0  0  0
    1.9461    4.1240    0.0000 O   0  0  0  0  0  0  0  0  0  0  0  0
    4.0019    2.5353    0.0000 C   0  0  0  0  0  0  0  0  0  0  0  0
    4.5712    1.1476    0.0000 N   0  0  0  0  0  0  0  0  0  0  0  0
    6.0577    0.9467    0.0000 C   0  0  0  0  0  0  0  0  0  0  0  0
    6.9749    2.1336    0.0000 O   0  0  0  0  0  0  0  0  0  0  0  0
    6.6270   -0.4411    0.0000 C   0  0  0  0  0  0  0  0  0  0  0  0
    8.0843   -0.7962    0.0000 C   0  0  0  0  0  0  0  0  0  0  0  0
    8.1969   -2.2920    0.0000 C   0  0  0  0  0  0  0  0  0  0  0  0
    6.8092   -2.8613    0.0000 C   0  0  0  0  0  0  0  0  0  0  0  0
    5.8389   -1.7173    0.0000 S   0  0  0  0  0  0  0  0  0  0  0  0
    4.9191    3.7222    0.0000 C   0  0  0  0  0  0  0  0  0  0  0  0
    6.4056    3.5214    0.0000 C   0  0  0  0  0  0  0  0  0  0  0  0
    4.3498    5.1100    0.0000 C   0  0  0  0  0  0  0  0  0  0  0  0
   -0.8055    0.5633    0.0000 C   0  0  0  0  0  0  0  0  0  0  0  0
   -2.2920    0.7641    0.0000 O   0  0  0  0  0  0  0  0  0  0  0  0
   -0.2362   -0.8245    0.0000 N   0  0  0  0  0  0  0  0  0  0  0  0
   -1.1534   -2.0114    0.0000 C   0  0  0  0  0  0  0  0  0  0  0  0
   -0.5841   -3.3992    0.0000 C   0  0  0  0  0  0  0  0  0  0  0  0
    0.9024   -3.6000    0.0000 C   0  0  0  0  0  0  0  0  0  0  0  0
    1.4717   -4.9878    0.0000 C   0  0  0  0  0  0  0  0  0  0  0  0
    2.9582   -5.1887    0.0000 C   0  0  0  0  0  0  0  0  0  0  0  0
    3.8754   -4.0018    0.0000 C   0  0  0  0  0  0  0  0  0  0  0  0
    3.3061   -2.6140    0.0000 C   0  0  0  0  0  0  0  0  0  0  0  0
    1.8196   -2.4131    0.0000 C   0  0  0  0  0  0  0  0  0  0  0  0
   -2.6399   -1.8105    0.0000 C   0  0  0  0  0  0  0  0  0  0  0  0
   -3.5571   -2.9975    0.0000 O   0  0  0  0  0  0  0  0  0  0  0  0
   -3.2092   -0.4228    0.0000 N   0  0  0  0  0  0  0  0  0  0  0  0
   -4.6956   -0.2219    0.0000 C   0  0  0  0  0  0  0  0  0  0  0  0
   -5.2649    1.1659    0.0000 C   0  0  0  0  0  0  0  0  0  0  0  0
   -6.7514    1.3667    0.0000 C   0  0  0  0  0  0  0  0  0  0  0  0
   -7.6686    0.1798    0.0000 C   0  0  0  0  0  0  0  0  0  0  0  0
   -7.0993   -1.2080    0.0000 C   0  0  0  0  0  0  0  0  0  0  0  0
   -5.6128   -1.4088    0.0000 C   0  0  0  0  0  0  0  0  0  0  0  0
   -5.0436   -2.7966    0.0000 Cl  0  0  0  0  0  0  0  0  0  0  0  0
   -9.1551    0.3807    0.0000 N   0  0  0  0  0  0  0  0  0  0  0  0
  -10.0723   -0.8062    0.0000 O   0  0  0  0  0  0  0  0  0  0  0  0
   -9.7244    1.7685    0.0000 O   0  0  0  0  0  0  0  0  0  0  0  0
  1  2  1  0
  2  3  1  0
  2  4  1  0
  4  5  1  0
  5  6  1  0
  5 21  1  0
  6  7  1  0
  7  8  2  0
  7  9  1  0
  9 10  1  0
  9 18  1  0
 10 11  1  0
 11 12  2  0
 11 13  1  0
 13 14  2  0
 13 17  1  0
 14 15  1  0
 15 16  2  0
 16 17  1  0
 18 19  1  0
 18 20  1  0
 21 22  2  0
 21 23  1  0
 23 24  1  0
 24 25  1  0
 24 32  1  0
 25 26  1  0
 26 27  2  0
 26 31  1  0
 27 28  1  0
 28 29  2  0
 29 30  1  0
 30 31  2  0
 32 33  2  0
 32 34  1  0
 34 35  1  0
 35 36  2  0
 35 40  1  0
 36 37  1  0
 37 38  2  0
 38 39  1  0
 38 42  1  0
 39 40  2  0
 40 41  1  0
 42 43  2  0
 42 44  1  0
M  CHG  2  42   1  44  -1
M  END
>  <s_m_entry_id>  (397) 
929

>  <s_m_entry_name>  (397) 
3C-like_protease_GHDDI_ligprep.548

>  <s_m_Source_Path>  (397) 
/home/jgilaber/drug_learning/drug_learning/datasets/SAR1/GHDDI

>  <s_m_Source_File>  (397) 
3C-like_protease_GHDDI_ligprep.sdf

>  <i_m_Source_File_Index>  (397) 
548

>  <s_m_subgroup_title>  (397) 
3C-like_protease_GHDDI_ligprep

>  <s_m_subgroupid>  (397) 
3C-like_protease_GHDDI_ligprep

>  <b_m_subgroup_collapsed>  (397) 
0

$$$$
13897
     RDKit          2D

 39 42  0  0  1  0  0  0  0  0999 V2000
   -6.9575    2.5295    0.0000 C   0  0  0  0  0  0  0  0  0  0  0  0
   -6.3905    1.1408    0.0000 C   0  0  0  0  0  0  0  0  0  0  0  0
   -5.8236   -0.2479    0.0000 C   0  0  0  0  0  0  0  0  0  0  0  0
   -7.7792    0.5739    0.0000 C   0  0  0  0  0  0  0  0  0  0  0  0
   -5.0018    1.7077    0.0000 N   0  0  0  0  0  0  0  0  0  0  0  0
   -3.8164    0.7885    0.0000 C   0  0  0  0  0  0  0  0  0  0  0  0
   -4.0198   -0.6976    0.0000 O   0  0  0  0  0  0  0  0  0  0  0  0
   -2.4277    1.3555    0.0000 C   0  0  0  0  0  0  0  0  0  0  0  0
   -1.2423    0.4363    0.0000 N   0  0  0  0  0  0  0  0  0  0  0  0
   -1.4457   -1.0499    0.0000 C   0  0  0  0  0  0  0  0  0  0  0  0
   -2.8345   -1.6168    0.0000 O   0  0  0  0  0  0  0  0  0  0  0  0
   -0.2604   -1.9691    0.0000 C   0  0  0  0  0  0  0  0  0  0  0  0
   -0.4637   -3.4552    0.0000 N   0  0  0  0  0  0  0  0  0  0  0  0
   -1.7856   -4.1642    0.0000 N   0  0  0  0  0  0  0  0  0  0  0  0
   -1.5198   -5.6405    0.0000 N   0  0  0  0  0  0  0  0  0  0  0  0
   -0.0336   -5.8439    0.0000 C   0  0  0  0  0  0  0  0  0  0  0  0
    0.8097   -7.0844    0.0000 C   0  0  0  0  0  0  0  0  0  0  0  0
    2.3056   -6.9743    0.0000 C   0  0  0  0  0  0  0  0  0  0  0  0
    2.9583   -5.6238    0.0000 C   0  0  0  0  0  0  0  0  0  0  0  0
    2.1150   -4.3832    0.0000 C   0  0  0  0  0  0  0  0  0  0  0  0
    0.6190   -4.4933    0.0000 C   0  0  0  0  0  0  0  0  0  0  0  0
    0.1464    1.0032    0.0000 C   0  0  0  0  0  0  0  0  0  0  0  0
    1.3317    0.0840    0.0000 C   0  0  0  0  0  0  0  0  0  0  0  0
    2.7205    0.6510    0.0000 C   0  0  0  0  0  0  0  0  0  0  0  0
    2.9239    2.1371    0.0000 C   0  0  0  0  0  0  0  0  0  0  0  0
    4.3126    2.7041    0.0000 N   0  0  0  0  0  0  0  0  0  0  0  0
    5.4979    1.7848    0.0000 C   0  0  0  0  0  0  0  0  0  0  0  0
    5.2946    0.2987    0.0000 O   0  0  0  0  0  0  0  0  0  0  0  0
    6.8867    2.3518    0.0000 C   0  0  0  0  0  0  0  0  0  0  0  0
    7.4536    0.9631    0.0000 C   0  0  0  0  0  0  0  0  0  0  0  0
    6.3197    3.7405    0.0000 C   0  0  0  0  0  0  0  0  0  0  0  0
    8.2754    2.9187    0.0000 C   0  0  0  0  0  0  0  0  0  0  0  0
    1.7385    3.0563    0.0000 C   0  0  0  0  0  0  0  0  0  0  0  0
    0.3498    2.4894    0.0000 C   0  0  0  0  0  0  0  0  0  0  0  0
   -2.2243    2.8416    0.0000 C   0  0  0  0  0  0  0  0  0  0  0  0
   -3.3071    3.8797    0.0000 C   0  0  0  0  0  0  0  0  0  0  0  0
   -2.6544    5.2303    0.0000 C   0  0  0  0  0  0  0  0  0  0  0  0
   -1.1683    5.0269    0.0000 S   0  0  0  0  0  0  0  0  0  0  0  0
   -0.9025    3.5506    0.0000 C   0  0  0  0  0  0  0  0  0  0  0  0
  1  2  1  0
  2  3  1  0
  2  4  1  0
  2  5  1  0
  5  6  1  0
  6  7  2  0
  6  8  1  0
  8  9  1  0
  8 35  1  0
  9 10  1  0
  9 22  1  0
 10 11  2  0
 10 12  1  0
 12 13  1  0
 13 14  1  0
 13 21  1  0
 14 15  2  0
 15 16  1  0
 16 17  1  0
 16 21  2  0
 17 18  2  0
 18 19  1  0
 19 20  2  0
 20 21  1  0
 22 23  2  0
 22 34  1  0
 23 24  1  0
 24 25  2  0
 25 26  1  0
 25 33  1  0
 26 27  1  0
 27 28  2  0
 27 29  1  0
 29 30  1  0
 29 31  1  0
 29 32  1  0
 33 34  2  0
 35 36  1  0
 35 39  2  0
 36 37  2  0
 37 38  1  0
 38 39  1  0
M  END
>  <s_m_entry_id>  (398) 
930

>  <s_m_entry_name>  (398) 
3C-like_protease_GHDDI_ligprep.549

>  <s_m_Source_Path>  (398) 
/home/jgilaber/drug_learning/drug_learning/datasets/SAR1/GHDDI

>  <s_m_Source_File>  (398) 
3C-like_protease_GHDDI_ligprep.sdf

>  <i_m_Source_File_Index>  (398) 
549

>  <s_m_subgroup_title>  (398) 
3C-like_protease_GHDDI_ligprep

>  <s_m_subgroupid>  (398) 
3C-like_protease_GHDDI_ligprep

>  <b_m_subgroup_collapsed>  (398) 
0

$$$$
13898
     RDKit          2D

 36 39  0  0  1  0  0  0  0  0999 V2000
    7.7831   -2.1289    0.0000 O   0  0  0  0  0  0  0  0  0  0  0  0
    6.3534   -1.6752    0.0000 C   0  0  0  0  0  0  0  0  0  0  0  0
    5.2456   -2.6866    0.0000 C   0  0  0  0  0  0  0  0  0  0  0  0
    3.8159   -2.2329    0.0000 C   0  0  0  0  0  0  0  0  0  0  0  0
    2.7081   -3.2443    0.0000 O   0  0  0  0  0  0  0  0  0  0  0  0
    3.4939   -0.7679    0.0000 C   0  0  0  0  0  0  0  0  0  0  0  0
    2.0641   -0.3142    0.0000 O   0  0  0  0  0  0  0  0  0  0  0  0
    1.7421    1.1508    0.0000 C   0  0  0  0  0  0  0  0  0  0  0  0
    2.8499    2.1622    0.0000 C   0  0  0  0  0  0  0  0  0  0  0  0
    2.5279    3.6272    0.0000 C   0  0  0  0  0  0  0  0  0  0  0  0
    3.6357    4.6386    0.0000 O   0  0  0  0  0  0  0  0  0  0  0  0
    1.0982    4.0809    0.0000 C   0  0  0  0  0  0  0  0  0  0  0  0
   -0.0096    3.0695    0.0000 C   0  0  0  0  0  0  0  0  0  0  0  0
   -1.4394    3.5232    0.0000 O   0  0  0  0  0  0  0  0  0  0  0  0
    0.3124    1.6045    0.0000 C   0  0  0  0  0  0  0  0  0  0  0  0
   -0.7954    0.5931    0.0000 O   0  0  0  0  0  0  0  0  0  0  0  0
   -2.2251    1.0468    0.0000 C   0  0  0  0  0  0  0  0  0  0  0  0
   -2.5471    2.5118    0.0000 C   0  0  0  0  0  0  0  0  0  0  0  0
   -3.9769    2.9655    0.0000 C   0  0  0  0  0  0  0  0  0  0  0  0
   -4.2989    4.4305    0.0000 O   0  0  0  0  0  0  0  0  0  0  0  0
   -5.0846    1.9541    0.0000 C   0  0  0  0  0  0  0  0  0  0  0  0
   -4.7626    0.4890    0.0000 C   0  0  0  0  0  0  0  0  0  0  0  0
   -5.8704   -0.5223    0.0000 O   0  0  0  0  0  0  0  0  0  0  0  0
   -3.3329    0.0354    0.0000 C   0  0  0  0  0  0  0  0  0  0  0  0
   -3.0109   -1.4296    0.0000 C   0  0  0  0  0  0  0  0  0  0  0  0
   -4.1187   -2.4410    0.0000 C   0  0  0  0  0  0  0  0  0  0  0  0
   -5.5484   -1.9874    0.0000 O   0  0  0  0  0  0  0  0  0  0  0  0
   -3.7967   -3.9061    0.0000 C   0  0  0  0  0  0  0  0  0  0  0  0
   -2.3669   -4.3597    0.0000 C   0  0  0  0  0  0  0  0  0  0  0  0
   -2.0449   -5.8247    0.0000 O   0  0  0  0  0  0  0  0  0  0  0  0
   -1.2592   -3.3483    0.0000 C   0  0  0  0  0  0  0  0  0  0  0  0
   -1.5811   -1.8833    0.0000 C   0  0  0  0  0  0  0  0  0  0  0  0
   -0.4734   -0.8719    0.0000 O   0  0  0  0  0  0  0  0  0  0  0  0
    4.6016    0.2435    0.0000 C   0  0  0  0  0  0  0  0  0  0  0  0
    4.2796    1.7085    0.0000 O   0  0  0  0  0  0  0  0  0  0  0  0
    6.0314   -0.2102    0.0000 C   0  0  0  0  0  0  0  0  0  0  0  0
  1  2  1  0
  2  3  2  0
  2 36  1  0
  3  4  1  0
  4  5  1  0
  4  6  2  0
  6  7  1  0
  6 34  1  0
  7  8  1  0
  8  9  2  0
  8 15  1  0
  9 10  1  0
 10 11  1  0
 10 12  2  0
 12 13  1  0
 13 14  1  0
 13 15  2  0
 15 16  1  0
 16 17  1  0
 17 18  2  0
 17 24  1  0
 18 19  1  0
 19 20  1  0
 19 21  2  0
 21 22  1  0
 22 23  1  0
 22 24  2  0
 24 25  1  0
 25 26  2  0
 25 32  1  0
 26 27  1  0
 26 28  1  0
 28 29  2  0
 29 30  1  0
 29 31  1  0
 31 32  2  0
 32 33  1  0
 34 35  1  0
 34 36  2  0
M  CHG  1  23  -1
M  END
>  <s_m_entry_id>  (399) 
932

>  <s_m_entry_name>  (399) 
3C-like_protease_GHDDI_ligprep.551

>  <s_m_Source_Path>  (399) 
/home/jgilaber/drug_learning/drug_learning/datasets/SAR1/GHDDI

>  <s_m_Source_File>  (399) 
3C-like_protease_GHDDI_ligprep.sdf

>  <i_m_Source_File_Index>  (399) 
551

>  <s_m_subgroup_title>  (399) 
3C-like_protease_GHDDI_ligprep

>  <s_m_subgroupid>  (399) 
3C-like_protease_GHDDI_ligprep

>  <b_m_subgroup_collapsed>  (399) 
0

$$$$
13901
     RDKit          2D

 22 23  0  0  1  0  0  0  0  0999 V2000
   -8.1813   -0.1623    0.0000 C   0  0  0  0  0  0  0  0  0  0  0  0
   -6.9396   -1.0038    0.0000 O   0  0  0  0  0  0  0  0  0  0  0  0
   -5.5900   -0.3491    0.0000 C   0  0  0  0  0  0  0  0  0  0  0  0
   -5.4822    1.1470    0.0000 O   0  0  0  0  0  0  0  0  0  0  0  0
   -4.3482   -1.1905    0.0000 C   0  0  0  0  0  0  0  0  0  0  0  0
   -2.9986   -0.5358    0.0000 C   0  0  0  0  0  0  0  0  0  0  0  0
   -2.8908    0.9603    0.0000 N   0  0  0  0  0  0  0  0  0  0  0  0
   -1.5412    1.6150    0.0000 C   0  0  0  0  0  0  0  0  0  0  0  0
   -1.4334    3.1111    0.0000 O   0  0  0  0  0  0  0  0  0  0  0  0
   -0.2995    0.7735    0.0000 C   0  0  0  0  0  0  0  0  0  0  0  0
    1.0501    1.4282    0.0000 C   0  0  0  0  0  0  0  0  0  0  0  0
    2.2919    0.5868    0.0000 O   0  0  0  0  0  0  0  0  0  0  0  0
    3.6415    1.2415    0.0000 C   0  0  0  0  0  0  0  0  0  0  0  0
    4.8833    0.4000    0.0000 C   0  0  0  0  0  0  0  0  0  0  0  0
    4.7754   -1.0961    0.0000 C   0  0  0  0  0  0  0  0  0  0  0  0
    6.0172   -1.9375    0.0000 C   0  0  0  0  0  0  0  0  0  0  0  0
    7.3668   -1.2828    0.0000 C   0  0  0  0  0  0  0  0  0  0  0  0
    7.4746    0.2133    0.0000 C   0  0  0  0  0  0  0  0  0  0  0  0
    6.2328    1.0547    0.0000 C   0  0  0  0  0  0  0  0  0  0  0  0
   -0.4073   -0.7226    0.0000 N   0  0  0  0  0  0  0  0  0  0  0  0
   -1.7569   -1.3773    0.0000 C   0  0  0  0  0  0  0  0  0  0  0  0
   -1.8647   -2.8734    0.0000 O   0  0  0  0  0  0  0  0  0  0  0  0
  1  2  1  0
  2  3  1  0
  3  4  2  0
  3  5  1  0
  5  6  1  0
  6  7  1  0
  6 21  1  0
  7  8  1  0
  8  9  2  0
  8 10  1  0
 10 11  1  0
 10 20  1  0
 11 12  1  0
 12 13  1  0
 13 14  1  0
 14 15  2  0
 14 19  1  0
 15 16  1  0
 16 17  2  0
 17 18  1  0
 18 19  2  0
 20 21  1  0
 21 22  2  0
M  END
>  <s_m_entry_id>  (400) 
936

>  <s_m_entry_name>  (400) 
3C-like_protease_GHDDI_ligprep.555

>  <s_m_Source_Path>  (400) 
/home/jgilaber/drug_learning/drug_learning/datasets/SAR1/GHDDI

>  <s_m_Source_File>  (400) 
3C-like_protease_GHDDI_ligprep.sdf

>  <i_m_Source_File_Index>  (400) 
555

>  <s_m_subgroup_title>  (400) 
3C-like_protease_GHDDI_ligprep

>  <s_m_subgroupid>  (400) 
3C-like_protease_GHDDI_ligprep

>  <b_m_subgroup_collapsed>  (400) 
0

$$$$
13902
     RDKit          2D

 23 26  0  0  1  0  0  0  0  0999 V2000
   -5.8613   -0.4904    0.0000 C   0  0  0  0  0  0  0  0  0  0  0  0
   -4.6486    0.3924    0.0000 C   0  0  0  0  0  0  0  0  0  0  0  0
   -4.6500    1.8924    0.0000 C   0  0  0  0  0  0  0  0  0  0  0  0
   -3.2238    2.3572    0.0000 O   0  0  0  0  0  0  0  0  0  0  0  0
   -2.3410    1.1445    0.0000 C   0  0  0  0  0  0  0  0  0  0  0  0
   -0.8491    0.9891    0.0000 C   0  0  0  0  0  0  0  0  0  0  0  0
    0.0315    2.2035    0.0000 C   0  0  0  0  0  0  0  0  0  0  0  0
    1.5234    2.0481    0.0000 C   0  0  0  0  0  0  0  0  0  0  0  0
    2.1348    0.6783    0.0000 C   0  0  0  0  0  0  0  0  0  0  0  0
    1.2542   -0.5360    0.0000 C   0  0  0  0  0  0  0  0  0  0  0  0
    1.8656   -1.9058    0.0000 C   0  0  0  0  0  0  0  0  0  0  0  0
    3.3575   -2.0612    0.0000 C   0  0  0  0  0  0  0  0  0  0  0  0
    4.2381   -0.8468    0.0000 C   0  0  0  0  0  0  0  0  0  0  0  0
    3.6267    0.5229    0.0000 C   0  0  0  0  0  0  0  0  0  0  0  0
    3.5207    2.0192    0.0000 C   0  0  0  0  0  0  0  0  0  0  0  0
    5.0818    0.8871    0.0000 C   0  0  0  0  0  0  0  0  0  0  0  0
    6.1248   -0.1909    0.0000 O   0  0  0  0  0  0  0  0  0  0  0  0
   -0.2377   -0.3806    0.0000 C   0  0  0  0  0  0  0  0  0  0  0  0
   -1.1183   -1.5950    0.0000 C   0  0  0  0  0  0  0  0  0  0  0  0
   -0.5069   -2.9647    0.0000 O   0  0  0  0  0  0  0  0  0  0  0  0
   -2.6102   -1.4396    0.0000 C   0  0  0  0  0  0  0  0  0  0  0  0
   -3.4907   -2.6539    0.0000 O   0  0  0  0  0  0  0  0  0  0  0  0
   -3.2216   -0.0698    0.0000 C   0  0  0  0  0  0  0  0  0  0  0  0
  1  2  1  0
  2  3  2  0
  2 23  1  0
  3  4  1  0
  4  5  1  0
  5  6  1  0
  5 23  2  0
  6  7  2  0
  6 18  1  0
  7  8  1  0
  8  9  2  0
  9 10  1  0
  9 14  1  0
 10 11  1  0
 10 18  2  0
 11 12  1  0
 12 13  1  0
 13 14  1  0
 14 15  1  0
 14 16  1  0
 16 17  1  0
 18 19  1  0
 19 20  2  0
 19 21  1  0
 21 22  2  0
 21 23  1  0
M  END
>  <s_m_entry_id>  (401) 
937

>  <s_m_entry_name>  (401) 
3C-like_protease_GHDDI_ligprep.556

>  <s_m_Source_Path>  (401) 
/home/jgilaber/drug_learning/drug_learning/datasets/SAR1/GHDDI

>  <s_m_Source_File>  (401) 
3C-like_protease_GHDDI_ligprep.sdf

>  <i_m_Source_File_Index>  (401) 
556

>  <s_m_subgroup_title>  (401) 
3C-like_protease_GHDDI_ligprep

>  <s_m_subgroupid>  (401) 
3C-like_protease_GHDDI_ligprep

>  <b_m_subgroup_collapsed>  (401) 
0

$$$$
13903
     RDKit          2D

 37 40  0  0  1  0  0  0  0  0999 V2000
   -6.9986   -0.7894    0.0000 C   0  0  0  0  0  0  0  0  0  0  0  0
   -5.8317   -1.7319    0.0000 C   0  0  0  0  0  0  0  0  0  0  0  0
   -4.6647   -2.6744    0.0000 C   0  0  0  0  0  0  0  0  0  0  0  0
   -6.7741   -2.8989    0.0000 C   0  0  0  0  0  0  0  0  0  0  0  0
   -4.8892   -0.5650    0.0000 N   0  0  0  0  0  0  0  0  0  0  0  0
   -3.4073   -0.7977    0.0000 C   0  0  0  0  0  0  0  0  0  0  0  0
   -2.8680   -2.1974    0.0000 O   0  0  0  0  0  0  0  0  0  0  0  0
   -2.4649    0.3692    0.0000 C   0  0  0  0  0  0  0  0  0  0  0  0
   -0.9830    0.1364    0.0000 N   0  0  0  0  0  0  0  0  0  0  0  0
   -0.4437   -1.2632    0.0000 C   0  0  0  0  0  0  0  0  0  0  0  0
   -1.3862   -2.4302    0.0000 O   0  0  0  0  0  0  0  0  0  0  0  0
    1.0382   -1.4960    0.0000 C   0  0  0  0  0  0  0  0  0  0  0  0
    1.5775   -2.8957    0.0000 N   0  0  0  0  0  0  0  0  0  0  0  0
    0.7622   -4.1547    0.0000 N   0  0  0  0  0  0  0  0  0  0  0  0
    1.7076   -5.3192    0.0000 N   0  0  0  0  0  0  0  0  0  0  0  0
    3.1073   -4.7799    0.0000 C   0  0  0  0  0  0  0  0  0  0  0  0
    4.4447   -5.4592    0.0000 C   0  0  0  0  0  0  0  0  0  0  0  0
    5.7016   -4.6406    0.0000 C   0  0  0  0  0  0  0  0  0  0  0  0
    5.6212   -3.1428    0.0000 C   0  0  0  0  0  0  0  0  0  0  0  0
    4.2838   -2.4635    0.0000 C   0  0  0  0  0  0  0  0  0  0  0  0
    3.0269   -3.2821    0.0000 C   0  0  0  0  0  0  0  0  0  0  0  0
   -0.0405    1.3034    0.0000 C   0  0  0  0  0  0  0  0  0  0  0  0
    1.4413    1.0706    0.0000 C   0  0  0  0  0  0  0  0  0  0  0  0
    2.3838    2.2375    0.0000 C   0  0  0  0  0  0  0  0  0  0  0  0
    1.8444    3.6372    0.0000 C   0  0  0  0  0  0  0  0  0  0  0  0
    2.7869    4.8041    0.0000 N   0  0  0  0  0  0  0  0  0  0  0  0
    4.2687    4.5714    0.0000 S   0  0  0  0  0  0  0  0  0  0  0  0
    4.0360    3.0896    0.0000 O   0  0  0  0  0  0  0  0  0  0  0  0
    4.5015    6.0532    0.0000 O   0  0  0  0  0  0  0  0  0  0  0  0
    5.7506    4.3386    0.0000 C   0  0  0  0  0  0  0  0  0  0  0  0
    0.3626    3.8700    0.0000 C   0  0  0  0  0  0  0  0  0  0  0  0
   -0.5799    2.7030    0.0000 C   0  0  0  0  0  0  0  0  0  0  0  0
   -3.0042    1.7689    0.0000 C   0  0  0  0  0  0  0  0  0  0  0  0
   -4.4536    2.1552    0.0000 C   0  0  0  0  0  0  0  0  0  0  0  0
   -4.5340    3.6531    0.0000 C   0  0  0  0  0  0  0  0  0  0  0  0
   -3.1343    4.1924    0.0000 S   0  0  0  0  0  0  0  0  0  0  0  0
   -2.1889    3.0279    0.0000 C   0  0  0  0  0  0  0  0  0  0  0  0
  1  2  1  0
  2  3  1  0
  2  4  1  0
  2  5  1  0
  5  6  1  0
  6  7  2  0
  6  8  1  0
  8  9  1  0
  8 33  1  0
  9 10  1  0
  9 22  1  0
 10 11  2  0
 10 12  1  0
 12 13  1  0
 13 14  1  0
 13 21  1  0
 14 15  2  0
 15 16  1  0
 16 17  1  0
 16 21  2  0
 17 18  2  0
 18 19  1  0
 19 20  2  0
 20 21  1  0
 22 23  2  0
 22 32  1  0
 23 24  1  0
 24 25  2  0
 25 26  1  0
 25 31  1  0
 26 27  1  0
 27 28  2  0
 27 29  2  0
 27 30  1  0
 31 32  2  0
 33 34  1  0
 33 37  2  0
 34 35  2  0
 35 36  1  0
 36 37  1  0
M  END
>  <s_m_entry_id>  (402) 
938

>  <s_m_entry_name>  (402) 
3C-like_protease_GHDDI_ligprep.557

>  <s_m_Source_Path>  (402) 
/home/jgilaber/drug_learning/drug_learning/datasets/SAR1/GHDDI

>  <s_m_Source_File>  (402) 
3C-like_protease_GHDDI_ligprep.sdf

>  <i_m_Source_File_Index>  (402) 
557

>  <s_m_subgroup_title>  (402) 
3C-like_protease_GHDDI_ligprep

>  <s_m_subgroupid>  (402) 
3C-like_protease_GHDDI_ligprep

>  <b_m_subgroup_collapsed>  (402) 
0

$$$$
13904
     RDKit          2D

 20 21  0  0  1  0  0  0  0  0999 V2000
    7.7963   -0.6652    0.0000 C   0  0  0  0  0  0  0  0  0  0  0  0
    6.3862   -1.1767    0.0000 O   0  0  0  0  0  0  0  0  0  0  0  0
    5.2382   -0.2112    0.0000 C   0  0  0  0  0  0  0  0  0  0  0  0
    3.8281   -0.7227    0.0000 C   0  0  0  0  0  0  0  0  0  0  0  0
    2.6801    0.2427    0.0000 O   0  0  0  0  0  0  0  0  0  0  0  0
    1.2700   -0.2687    0.0000 C   0  0  0  0  0  0  0  0  0  0  0  0
    0.1220    0.6967    0.0000 C   0  0  0  0  0  0  0  0  0  0  0  0
   -1.2881    0.1852    0.0000 N   0  0  0  0  0  0  0  0  0  0  0  0
   -2.5307    1.0254    0.0000 C   0  0  0  0  0  0  0  0  0  0  0  0
   -2.5814    2.5245    0.0000 C   0  0  0  0  0  0  0  0  0  0  0  0
   -1.3085    3.3180    0.0000 C   0  0  0  0  0  0  0  0  0  0  0  0
   -1.3592    4.8172    0.0000 C   0  0  0  0  0  0  0  0  0  0  0  0
   -0.0862    5.6106    0.0000 O   0  0  0  0  0  0  0  0  0  0  0  0
   -3.7138    0.1032    0.0000 N   0  0  0  0  0  0  0  0  0  0  0  0
   -3.2023   -1.3069    0.0000 C   0  0  0  0  0  0  0  0  0  0  0  0
   -3.9080   -2.6305    0.0000 C   0  0  0  0  0  0  0  0  0  0  0  0
   -3.1145   -3.9035    0.0000 C   0  0  0  0  0  0  0  0  0  0  0  0
   -1.6154   -3.8528    0.0000 C   0  0  0  0  0  0  0  0  0  0  0  0
   -0.9097   -2.5291    0.0000 C   0  0  0  0  0  0  0  0  0  0  0  0
   -1.7032   -1.2562    0.0000 C   0  0  0  0  0  0  0  0  0  0  0  0
  1  2  1  0
  2  3  1  0
  3  4  1  0
  4  5  1  0
  5  6  1  0
  6  7  1  0
  7  8  1  0
  8  9  1  0
  8 20  1  0
  9 10  1  0
  9 14  2  0
 10 11  1  0
 11 12  1  0
 12 13  1  0
 14 15  1  0
 15 16  1  0
 15 20  2  0
 16 17  2  0
 17 18  1  0
 18 19  2  0
 19 20  1  0
M  END
>  <s_m_entry_id>  (403) 
940

>  <s_m_entry_name>  (403) 
3C-like_protease_GHDDI_ligprep.559

>  <s_m_Source_Path>  (403) 
/home/jgilaber/drug_learning/drug_learning/datasets/SAR1/GHDDI

>  <s_m_Source_File>  (403) 
3C-like_protease_GHDDI_ligprep.sdf

>  <i_m_Source_File_Index>  (403) 
559

>  <s_m_subgroup_title>  (403) 
3C-like_protease_GHDDI_ligprep

>  <s_m_subgroupid>  (403) 
3C-like_protease_GHDDI_ligprep

>  <b_m_subgroup_collapsed>  (403) 
0

$$$$
13905
     RDKit          2D

 40 44  0  0  1  0  0  0  0  0999 V2000
   -6.8147    3.4486    0.0000 C   0  0  0  0  0  0  0  0  0  0  0  0
   -6.4550    1.9924    0.0000 C   0  0  0  0  0  0  0  0  0  0  0  0
   -6.0953    0.5361    0.0000 C   0  0  0  0  0  0  0  0  0  0  0  0
   -7.9113    1.6327    0.0000 C   0  0  0  0  0  0  0  0  0  0  0  0
   -4.9988    2.3521    0.0000 N   0  0  0  0  0  0  0  0  0  0  0  0
   -3.9592    1.2708    0.0000 C   0  0  0  0  0  0  0  0  0  0  0  0
   -4.3758   -0.1702    0.0000 O   0  0  0  0  0  0  0  0  0  0  0  0
   -2.5029    1.6305    0.0000 C   0  0  0  0  0  0  0  0  0  0  0  0
   -1.4633    0.5492    0.0000 N   0  0  0  0  0  0  0  0  0  0  0  0
   -1.8799   -0.8918    0.0000 C   0  0  0  0  0  0  0  0  0  0  0  0
   -3.3361   -1.2515    0.0000 O   0  0  0  0  0  0  0  0  0  0  0  0
   -0.8403   -1.9730    0.0000 C   0  0  0  0  0  0  0  0  0  0  0  0
   -1.2569   -3.4140    0.0000 N   0  0  0  0  0  0  0  0  0  0  0  0
   -2.6675   -3.9240    0.0000 N   0  0  0  0  0  0  0  0  0  0  0  0
   -2.6185   -5.4232    0.0000 N   0  0  0  0  0  0  0  0  0  0  0  0
   -1.1775   -5.8398    0.0000 C   0  0  0  0  0  0  0  0  0  0  0  0
   -0.5229   -7.1894    0.0000 C   0  0  0  0  0  0  0  0  0  0  0  0
    0.9733   -7.2973    0.0000 C   0  0  0  0  0  0  0  0  0  0  0  0
    1.8148   -6.0556    0.0000 C   0  0  0  0  0  0  0  0  0  0  0  0
    1.1601   -4.7059    0.0000 C   0  0  0  0  0  0  0  0  0  0  0  0
   -0.3360   -4.5981    0.0000 C   0  0  0  0  0  0  0  0  0  0  0  0
   -0.0071    0.9089    0.0000 C   0  0  0  0  0  0  0  0  0  0  0  0
    1.0326   -0.1723    0.0000 C   0  0  0  0  0  0  0  0  0  0  0  0
    2.4888    0.1874    0.0000 C   0  0  0  0  0  0  0  0  0  0  0  0
    2.9054    1.6284    0.0000 C   0  0  0  0  0  0  0  0  0  0  0  0
    4.3616    1.9881    0.0000 N   0  0  0  0  0  0  0  0  0  0  0  0
    5.4012    0.9068    0.0000 C   0  0  0  0  0  0  0  0  0  0  0  0
    4.9846   -0.5342    0.0000 O   0  0  0  0  0  0  0  0  0  0  0  0
    6.8575    1.2665    0.0000 C   0  0  0  0  0  0  0  0  0  0  0  0
    7.4224    2.6560    0.0000 O   0  0  0  0  0  0  0  0  0  0  0  0
    8.9185    2.5481    0.0000 N   0  0  0  0  0  0  0  0  0  0  0  0
    9.2782    1.0919    0.0000 C   0  0  0  0  0  0  0  0  0  0  0  0
    8.0044    0.2998    0.0000 C   0  0  0  0  0  0  0  0  0  0  0  0
    1.8658    2.7096    0.0000 C   0  0  0  0  0  0  0  0  0  0  0  0
    0.4095    2.3499    0.0000 C   0  0  0  0  0  0  0  0  0  0  0  0
   -2.0863    3.0715    0.0000 C   0  0  0  0  0  0  0  0  0  0  0  0
   -3.0073    4.2555    0.0000 C   0  0  0  0  0  0  0  0  0  0  0  0
   -2.1658    5.4972    0.0000 C   0  0  0  0  0  0  0  0  0  0  0  0
   -0.7248    5.0806    0.0000 S   0  0  0  0  0  0  0  0  0  0  0  0
   -0.6757    3.5815    0.0000 C   0  0  0  0  0  0  0  0  0  0  0  0
  1  2  1  0
  2  3  1  0
  2  4  1  0
  2  5  1  0
  5  6  1  0
  6  7  2  0
  6  8  1  0
  8  9  1  0
  8 36  1  0
  9 10  1  0
  9 22  1  0
 10 11  2  0
 10 12  1  0
 12 13  1  0
 13 14  1  0
 13 21  1  0
 14 15  2  0
 15 16  1  0
 16 17  1  0
 16 21  2  0
 17 18  2  0
 18 19  1  0
 19 20  2  0
 20 21  1  0
 22 23  2  0
 22 35  1  0
 23 24  1  0
 24 25  2  0
 25 26  1  0
 25 34  1  0
 26 27  1  0
 27 28  2  0
 27 29  1  0
 29 30  1  0
 29 33  2  0
 30 31  1  0
 31 32  2  0
 32 33  1  0
 34 35  2  0
 36 37  1  0
 36 40  2  0
 37 38  2  0
 38 39  1  0
 39 40  1  0
M  END
>  <s_m_entry_id>  (404) 
942

>  <s_m_entry_name>  (404) 
3C-like_protease_GHDDI_ligprep.561

>  <s_m_Source_Path>  (404) 
/home/jgilaber/drug_learning/drug_learning/datasets/SAR1/GHDDI

>  <s_m_Source_File>  (404) 
3C-like_protease_GHDDI_ligprep.sdf

>  <i_m_Source_File_Index>  (404) 
561

>  <s_m_subgroup_title>  (404) 
3C-like_protease_GHDDI_ligprep

>  <s_m_subgroupid>  (404) 
3C-like_protease_GHDDI_ligprep

>  <b_m_subgroup_collapsed>  (404) 
0

$$$$
13906
     RDKit          2D

 24 26  0  0  1  0  0  0  0  0999 V2000
   -7.3018    1.5577    0.0000 C   0  0  0  0  0  0  0  0  0  0  0  0
   -6.4589    0.3169    0.0000 O   0  0  0  0  0  0  0  0  0  0  0  0
   -4.9630    0.4265    0.0000 C   0  0  0  0  0  0  0  0  0  0  0  0
   -4.3099    1.7769    0.0000 C   0  0  0  0  0  0  0  0  0  0  0  0
   -2.8139    1.8864    0.0000 C   0  0  0  0  0  0  0  0  0  0  0  0
   -1.9710    0.6457    0.0000 C   0  0  0  0  0  0  0  0  0  0  0  0
   -2.6241   -0.7047    0.0000 C   0  0  0  0  0  0  0  0  0  0  0  0
   -4.1201   -0.8143    0.0000 C   0  0  0  0  0  0  0  0  0  0  0  0
   -0.4750    0.7552    0.0000 C   0  0  0  0  0  0  0  0  0  0  0  0
    0.1781    2.1056    0.0000 O   0  0  0  0  0  0  0  0  0  0  0  0
    0.3679   -0.4856    0.0000 C   0  0  0  0  0  0  0  0  0  0  0  0
    1.8639   -0.3760    0.0000 N   0  0  0  0  0  0  0  0  0  0  0  0
    2.8319   -1.5219    0.0000 C   0  0  0  0  0  0  0  0  0  0  0  0
    2.4738   -2.9785    0.0000 N   0  0  0  0  0  0  0  0  0  0  0  0
    1.0333   -3.3967    0.0000 C   0  0  0  0  0  0  0  0  0  0  0  0
    0.6752   -4.8533    0.0000 C   0  0  0  0  0  0  0  0  0  0  0  0
   -0.7653   -5.2716    0.0000 O   0  0  0  0  0  0  0  0  0  0  0  0
    4.2208   -0.9554    0.0000 N   0  0  0  0  0  0  0  0  0  0  0  0
    4.1112    0.5406    0.0000 C   0  0  0  0  0  0  0  0  0  0  0  0
    5.1496    1.6231    0.0000 C   0  0  0  0  0  0  0  0  0  0  0  0
    4.7314    3.0636    0.0000 C   0  0  0  0  0  0  0  0  0  0  0  0
    3.2748    3.4217    0.0000 C   0  0  0  0  0  0  0  0  0  0  0  0
    2.2364    2.3392    0.0000 C   0  0  0  0  0  0  0  0  0  0  0  0
    2.6546    0.8987    0.0000 C   0  0  0  0  0  0  0  0  0  0  0  0
  1  2  1  0
  2  3  1  0
  3  4  2  0
  3  8  1  0
  4  5  1  0
  5  6  2  0
  6  7  1  0
  6  9  1  0
  7  8  2  0
  9 10  2  0
  9 11  1  0
 11 12  1  0
 12 13  1  0
 12 24  1  0
 13 14  1  0
 13 18  2  0
 14 15  1  0
 15 16  1  0
 16 17  1  0
 18 19  1  0
 19 20  1  0
 19 24  2  0
 20 21  2  0
 21 22  1  0
 22 23  2  0
 23 24  1  0
M  END
>  <s_m_entry_id>  (405) 
945

>  <s_m_entry_name>  (405) 
3C-like_protease_GHDDI_ligprep.564

>  <s_m_Source_Path>  (405) 
/home/jgilaber/drug_learning/drug_learning/datasets/SAR1/GHDDI

>  <s_m_Source_File>  (405) 
3C-like_protease_GHDDI_ligprep.sdf

>  <i_m_Source_File_Index>  (405) 
564

>  <s_m_subgroup_title>  (405) 
3C-like_protease_GHDDI_ligprep

>  <s_m_subgroupid>  (405) 
3C-like_protease_GHDDI_ligprep

>  <b_m_subgroup_collapsed>  (405) 
0

$$$$
13907
     RDKit          2D

 24 26  0  0  1  0  0  0  0  0999 V2000
    9.1121   -0.3276    0.0000 C   0  0  0  0  0  0  0  0  0  0  0  0
    7.6387   -0.6086    0.0000 C   0  0  0  0  0  0  0  0  0  0  0  0
    6.6586    0.5269    0.0000 O   0  0  0  0  0  0  0  0  0  0  0  0
    5.1851    0.2458    0.0000 C   0  0  0  0  0  0  0  0  0  0  0  0
    4.6918   -1.1707    0.0000 C   0  0  0  0  0  0  0  0  0  0  0  0
    3.2184   -1.4517    0.0000 C   0  0  0  0  0  0  0  0  0  0  0  0
    2.2383   -0.3162    0.0000 C   0  0  0  0  0  0  0  0  0  0  0  0
    2.7316    1.1003    0.0000 C   0  0  0  0  0  0  0  0  0  0  0  0
    4.2050    1.3814    0.0000 C   0  0  0  0  0  0  0  0  0  0  0  0
    4.6984    2.7979    0.0000 C   0  0  0  0  0  0  0  0  0  0  0  0
    0.7648   -0.5973    0.0000 S   0  0  0  0  0  0  0  0  0  0  0  0
    0.4838    0.8762    0.0000 O   0  0  0  0  0  0  0  0  0  0  0  0
    1.0459   -2.0707    0.0000 O   0  0  0  0  0  0  0  0  0  0  0  0
   -0.7086   -0.8783    0.0000 N   0  0  0  0  0  0  0  0  0  0  0  0
   -1.6887    0.2572    0.0000 C   0  0  0  0  0  0  0  0  0  0  0  0
   -3.1622   -0.0238    0.0000 C   0  0  0  0  0  0  0  0  0  0  0  0
   -3.6555   -1.4404    0.0000 C   0  0  0  0  0  0  0  0  0  0  0  0
   -5.1289   -1.7214    0.0000 C   0  0  0  0  0  0  0  0  0  0  0  0
   -6.1090   -0.5859    0.0000 C   0  0  0  0  0  0  0  0  0  0  0  0
   -7.6087   -0.5545    0.0000 O   0  0  0  0  0  0  0  0  0  0  0  0
   -8.0422    0.8815    0.0000 C   0  0  0  0  0  0  0  0  0  0  0  0
   -6.8105    1.7376    0.0000 O   0  0  0  0  0  0  0  0  0  0  0  0
   -5.6157    0.8307    0.0000 C   0  0  0  0  0  0  0  0  0  0  0  0
   -4.1423    1.1117    0.0000 C   0  0  0  0  0  0  0  0  0  0  0  0
  1  2  1  0
  2  3  1  0
  3  4  1  0
  4  5  2  0
  4  9  1  0
  5  6  1  0
  6  7  2  0
  7  8  1  0
  7 11  1  0
  8  9  2  0
  9 10  1  0
 11 12  2  0
 11 13  2  0
 11 14  1  0
 14 15  1  0
 15 16  1  0
 16 17  2  0
 16 24  1  0
 17 18  1  0
 18 19  2  0
 19 20  1  0
 19 23  1  0
 20 21  1  0
 21 22  1  0
 22 23  1  0
 23 24  2  0
M  END
>  <s_m_entry_id>  (406) 
946

>  <s_m_entry_name>  (406) 
3C-like_protease_GHDDI_ligprep.565

>  <s_m_Source_Path>  (406) 
/home/jgilaber/drug_learning/drug_learning/datasets/SAR1/GHDDI

>  <s_m_Source_File>  (406) 
3C-like_protease_GHDDI_ligprep.sdf

>  <i_m_Source_File_Index>  (406) 
565

>  <s_m_subgroup_title>  (406) 
3C-like_protease_GHDDI_ligprep

>  <s_m_subgroupid>  (406) 
3C-like_protease_GHDDI_ligprep

>  <b_m_subgroup_collapsed>  (406) 
0

$$$$
13909
     RDKit          2D

 41 42  0  0  1  0  0  0  0  0999 V2000
    8.5311   -1.4854    0.0000 C   0  0  0  0  0  0  0  0  0  0  0  0
    7.0649   -1.1689    0.0000 C   0  0  0  0  0  0  0  0  0  0  0  0
    6.6059    0.2592    0.0000 C   0  0  0  0  0  0  0  0  0  0  0  0
    7.6132    1.3707    0.0000 O   0  0  0  0  0  0  0  0  0  0  0  0
    5.1397    0.5758    0.0000 N   0  0  0  0  0  0  0  0  0  0  0  0
    4.6808    2.0038    0.0000 C   0  0  0  0  0  0  0  0  0  0  0  0
    5.6881    3.1153    0.0000 C   0  0  0  0  0  0  0  0  0  0  0  0
    7.1543    2.7988    0.0000 C   0  0  0  0  0  0  0  0  0  0  0  0
    5.2291    4.5434    0.0000 C   0  0  0  0  0  0  0  0  0  0  0  0
    3.2146    2.3204    0.0000 C   0  0  0  0  0  0  0  0  0  0  0  0
    2.7556    3.7485    0.0000 O   0  0  0  0  0  0  0  0  0  0  0  0
    2.2073    1.2089    0.0000 C   0  0  0  0  0  0  0  0  0  0  0  0
    0.7411    1.5255    0.0000 C   0  0  0  0  0  0  0  0  0  0  0  0
    0.2822    2.9536    0.0000 C   0  0  0  0  0  0  0  0  0  0  0  0
   -1.1841    3.2702    0.0000 C   0  0  0  0  0  0  0  0  0  0  0  0
   -1.6430    4.6982    0.0000 C   0  0  0  0  0  0  0  0  0  0  0  0
   -2.1913    2.1587    0.0000 C   0  0  0  0  0  0  0  0  0  0  0  0
   -0.2662    0.4140    0.0000 C   0  0  0  0  0  0  0  0  0  0  0  0
   -1.7324    0.7306    0.0000 O   0  0  0  0  0  0  0  0  0  0  0  0
    0.1928   -1.0140    0.0000 N   0  0  0  0  0  0  0  0  0  0  0  0
   -0.8145   -2.1255    0.0000 C   0  0  0  0  0  0  0  0  0  0  0  0
   -0.3556   -3.5536    0.0000 C   0  0  0  0  0  0  0  0  0  0  0  0
    1.1107   -3.8702    0.0000 C   0  0  0  0  0  0  0  0  0  0  0  0
    1.5696   -5.2982    0.0000 C   0  0  0  0  0  0  0  0  0  0  0  0
    3.0358   -5.6148    0.0000 C   0  0  0  0  0  0  0  0  0  0  0  0
    4.0431   -4.5033    0.0000 C   0  0  0  0  0  0  0  0  0  0  0  0
    3.5841   -3.0753    0.0000 C   0  0  0  0  0  0  0  0  0  0  0  0
    2.1179   -2.7587    0.0000 C   0  0  0  0  0  0  0  0  0  0  0  0
   -2.2807   -1.8090    0.0000 C   0  0  0  0  0  0  0  0  0  0  0  0
   -3.2880   -2.9204    0.0000 O   0  0  0  0  0  0  0  0  0  0  0  0
   -2.7397   -0.3809    0.0000 N   0  0  0  0  0  0  0  0  0  0  0  0
   -4.2059   -0.0643    0.0000 C   0  0  0  0  0  0  0  0  0  0  0  0
   -4.6648    1.3638    0.0000 C   0  0  0  0  0  0  0  0  0  0  0  0
   -6.1310    1.6803    0.0000 C   0  0  0  0  0  0  0  0  0  0  0  0
   -7.1383    0.5688    0.0000 C   0  0  0  0  0  0  0  0  0  0  0  0
   -6.6794   -0.8592    0.0000 C   0  0  0  0  0  0  0  0  0  0  0  0
   -5.2131   -1.1758    0.0000 C   0  0  0  0  0  0  0  0  0  0  0  0
   -4.7542   -2.6039    0.0000 Cl  0  0  0  0  0  0  0  0  0  0  0  0
   -8.6045    0.8854    0.0000 N   0  0  0  0  0  0  0  0  0  0  0  0
   -9.6118   -0.2261    0.0000 O   0  0  0  0  0  0  0  0  0  0  0  0
   -9.0635    2.3135    0.0000 O   0  0  0  0  0  0  0  0  0  0  0  0
  1  2  1  0
  2  3  1  0
  3  4  2  0
  3  5  1  0
  5  6  1  0
  6  7  1  0
  6 10  1  0
  7  8  1  0
  7  9  1  0
 10 11  2  0
 10 12  1  0
 12 13  1  0
 13 14  1  0
 13 18  1  0
 14 15  1  0
 15 16  1  0
 15 17  1  0
 18 19  2  0
 18 20  1  0
 20 21  1  0
 21 22  1  0
 21 29  1  0
 22 23  1  0
 23 24  2  0
 23 28  1  0
 24 25  1  0
 25 26  2  0
 26 27  1  0
 27 28  2  0
 29 30  2  0
 29 31  1  0
 31 32  1  0
 32 33  2  0
 32 37  1  0
 33 34  1  0
 34 35  2  0
 35 36  1  0
 35 39  1  0
 36 37  2  0
 37 38  1  0
 39 40  2  0
 39 41  1  0
M  CHG  2  39   1  41  -1
M  END
>  <s_m_entry_id>  (407) 
952

>  <s_m_entry_name>  (407) 
3C-like_protease_GHDDI_ligprep.571

>  <s_m_Source_Path>  (407) 
/home/jgilaber/drug_learning/drug_learning/datasets/SAR1/GHDDI

>  <s_m_Source_File>  (407) 
3C-like_protease_GHDDI_ligprep.sdf

>  <i_m_Source_File_Index>  (407) 
571

>  <s_m_subgroup_title>  (407) 
3C-like_protease_GHDDI_ligprep

>  <s_m_subgroupid>  (407) 
3C-like_protease_GHDDI_ligprep

>  <b_m_subgroup_collapsed>  (407) 
0

$$$$
13910
     RDKit          2D

 49 53  0  0  1  0  0  0  0  0999 V2000
    2.0483    8.5803    0.0000 C   0  0  0  0  0  0  0  0  0  0  0  0
    0.9192    7.5928    0.0000 C   0  0  0  0  0  0  0  0  0  0  0  0
   -0.5005    8.0768    0.0000 C   0  0  0  0  0  0  0  0  0  0  0  0
    1.2099    6.1212    0.0000 C   0  0  0  0  0  0  0  0  0  0  0  0
    2.6297    5.6372    0.0000 O   0  0  0  0  0  0  0  0  0  0  0  0
    0.0809    5.1337    0.0000 N   0  0  0  0  0  0  0  0  0  0  0  0
    0.3716    3.6621    0.0000 C   0  0  0  0  0  0  0  0  0  0  0  0
    1.7914    3.1781    0.0000 C   0  0  0  0  0  0  0  0  0  0  0  0
    2.0821    1.7066    0.0000 C   0  0  0  0  0  0  0  0  0  0  0  0
    0.9530    0.7190    0.0000 C   0  0  0  0  0  0  0  0  0  0  0  0
   -0.4667    1.2030    0.0000 C   0  0  0  0  0  0  0  0  0  0  0  0
   -0.7574    2.6746    0.0000 C   0  0  0  0  0  0  0  0  0  0  0  0
    1.2437   -0.7525    0.0000 N   0  0  0  0  0  0  0  0  0  0  0  0
    0.1147   -1.7401    0.0000 C   0  0  0  0  0  0  0  0  0  0  0  0
    0.4054   -3.2116    0.0000 C   0  0  0  0  0  0  0  0  0  0  0  0
    1.8252   -3.6957    0.0000 O   0  0  0  0  0  0  0  0  0  0  0  0
   -0.7237   -4.1992    0.0000 N   0  0  0  0  0  0  0  0  0  0  0  0
   -0.4330   -5.6707    0.0000 C   0  0  0  0  0  0  0  0  0  0  0  0
   -1.5620   -6.6583    0.0000 C   0  0  0  0  0  0  0  0  0  0  0  0
   -2.9818   -6.1743    0.0000 C   0  0  0  0  0  0  0  0  0  0  0  0
   -4.1108   -7.1618    0.0000 C   0  0  0  0  0  0  0  0  0  0  0  0
   -3.8201   -8.6334    0.0000 C   0  0  0  0  0  0  0  0  0  0  0  0
   -2.4003   -9.1174    0.0000 C   0  0  0  0  0  0  0  0  0  0  0  0
   -1.2713   -8.1298    0.0000 C   0  0  0  0  0  0  0  0  0  0  0  0
   -1.3051   -1.2561    0.0000 C   0  0  0  0  0  0  0  0  0  0  0  0
   -1.5958    0.2155    0.0000 C   0  0  0  0  0  0  0  0  0  0  0  0
   -3.0156    0.6995    0.0000 C   0  0  0  0  0  0  0  0  0  0  0  0
   -4.1446   -0.2880    0.0000 C   0  0  0  0  0  0  0  0  0  0  0  0
   -5.5644    0.1960    0.0000 O   0  0  0  0  0  0  0  0  0  0  0  0
   -5.8551    1.6675    0.0000 C   0  0  0  0  0  0  0  0  0  0  0  0
   -7.2748    2.1516    0.0000 C   0  0  0  0  0  0  0  0  0  0  0  0
   -7.5656    3.6231    0.0000 C   0  0  0  0  0  0  0  0  0  0  0  0
   -8.9853    4.1071    0.0000 N   0  0  0  0  0  0  0  0  0  0  0  0
   -9.2760    5.5787    0.0000 C   0  0  0  0  0  0  0  0  0  0  0  0
  -10.1144    3.1196    0.0000 C   0  0  0  0  0  0  0  0  0  0  0  0
   -3.8539   -1.7596    0.0000 C   0  0  0  0  0  0  0  0  0  0  0  0
   -2.4341   -2.2436    0.0000 C   0  0  0  0  0  0  0  0  0  0  0  0
    2.6635   -1.2366    0.0000 C   0  0  0  0  0  0  0  0  0  0  0  0
    2.9542   -2.7081    0.0000 O   0  0  0  0  0  0  0  0  0  0  0  0
    3.7926   -0.2490    0.0000 C   0  0  0  0  0  0  0  0  0  0  0  0
    5.2123   -0.7330    0.0000 N   0  0  0  0  0  0  0  0  0  0  0  0
    5.6553   -2.1661    0.0000 N   0  0  0  0  0  0  0  0  0  0  0  0
    7.1551   -2.1877    0.0000 N   0  0  0  0  0  0  0  0  0  0  0  0
    7.6391   -0.7680    0.0000 C   0  0  0  0  0  0  0  0  0  0  0  0
    9.0181   -0.1777    0.0000 C   0  0  0  0  0  0  0  0  0  0  0  0
    9.1963    1.3117    0.0000 C   0  0  0  0  0  0  0  0  0  0  0  0
    7.9956    2.2108    0.0000 C   0  0  0  0  0  0  0  0  0  0  0  0
    6.6167    1.6205    0.0000 C   0  0  0  0  0  0  0  0  0  0  0  0
    6.4384    0.1311    0.0000 C   0  0  0  0  0  0  0  0  0  0  0  0
  1  2  1  0
  2  3  1  0
  2  4  1  0
  4  5  2  0
  4  6  1  0
  6  7  1  0
  7  8  2  0
  7 12  1  0
  8  9  1  0
  9 10  2  0
 10 11  1  0
 10 13  1  0
 11 12  2  0
 13 14  1  0
 13 38  1  0
 14 15  1  0
 14 25  1  0
 15 16  2  0
 15 17  1  0
 17 18  1  0
 18 19  1  0
 19 20  2  0
 19 24  1  0
 20 21  1  0
 21 22  2  0
 22 23  1  0
 23 24  2  0
 25 26  2  0
 25 37  1  0
 26 27  1  0
 27 28  2  0
 28 29  1  0
 28 36  1  0
 29 30  1  0
 30 31  1  0
 31 32  1  0
 32 33  1  0
 33 34  1  0
 33 35  1  0
 36 37  2  0
 38 39  2  0
 38 40  1  0
 40 41  1  0
 41 42  1  0
 41 49  1  0
 42 43  2  0
 43 44  1  0
 44 45  1  0
 44 49  2  0
 45 46  2  0
 46 47  1  0
 47 48  2  0
 48 49  1  0
M  CHG  1  33   1
M  END
>  <s_m_entry_id>  (408) 
953

>  <s_m_entry_name>  (408) 
3C-like_protease_GHDDI_ligprep.572

>  <s_m_Source_Path>  (408) 
/home/jgilaber/drug_learning/drug_learning/datasets/SAR1/GHDDI

>  <s_m_Source_File>  (408) 
3C-like_protease_GHDDI_ligprep.sdf

>  <i_m_Source_File_Index>  (408) 
572

>  <s_m_subgroup_title>  (408) 
3C-like_protease_GHDDI_ligprep

>  <s_m_subgroupid>  (408) 
3C-like_protease_GHDDI_ligprep

>  <b_m_subgroup_collapsed>  (408) 
0

$$$$
13911
     RDKit          2D

 37 41  0  0  1  0  0  0  0  0999 V2000
    1.4971   -2.3074    0.0000 C   0  0  0  0  0  0  0  0  0  0  0  0
    2.9703   -2.0251    0.0000 C   0  0  0  0  0  0  0  0  0  0  0  0
    3.9514   -3.1597    0.0000 C   0  0  0  0  0  0  0  0  0  0  0  0
    5.4246   -2.8774    0.0000 C   0  0  0  0  0  0  0  0  0  0  0  0
    6.4057   -4.0120    0.0000 C   0  0  0  0  0  0  0  0  0  0  0  0
    7.8789   -3.7297    0.0000 C   0  0  0  0  0  0  0  0  0  0  0  0
    8.3709   -2.3127    0.0000 C   0  0  0  0  0  0  0  0  0  0  0  0
    7.3898   -1.1780    0.0000 C   0  0  0  0  0  0  0  0  0  0  0  0
    5.9166   -1.4604    0.0000 C   0  0  0  0  0  0  0  0  0  0  0  0
    0.5160   -1.1728    0.0000 N   0  0  0  0  0  0  0  0  0  0  0  0
    1.8037   -0.4036    0.0000 C   0  0  0  0  0  0  0  0  0  0  0  0
    1.7815    1.0962    0.0000 C   0  0  0  0  0  0  0  0  0  0  0  0
    3.0693    1.8654    0.0000 C   0  0  0  0  0  0  0  0  0  0  0  0
    3.0470    3.3652    0.0000 C   0  0  0  0  0  0  0  0  0  0  0  0
    4.3348    4.1344    0.0000 C   0  0  0  0  0  0  0  0  0  0  0  0
    4.3126    5.6343    0.0000 C   0  0  0  0  0  0  0  0  0  0  0  0
    3.0025    6.3649    0.0000 C   0  0  0  0  0  0  0  0  0  0  0  0
    1.7148    5.5957    0.0000 C   0  0  0  0  0  0  0  0  0  0  0  0
    1.7370    4.0959    0.0000 C   0  0  0  0  0  0  0  0  0  0  0  0
   -0.4311   -2.3360    0.0000 C   0  0  0  0  0  0  0  0  0  0  0  0
   -1.9120   -2.0975    0.0000 C   0  0  0  0  0  0  0  0  0  0  0  0
   -2.4459   -0.6957    0.0000 N   0  0  0  0  0  0  0  0  0  0  0  0
   -1.4988    0.4675    0.0000 C   0  0  0  0  0  0  0  0  0  0  0  0
   -0.0179    0.2290    0.0000 C   0  0  0  0  0  0  0  0  0  0  0  0
   -3.9268   -0.4572    0.0000 C   0  0  0  0  0  0  0  0  0  0  0  0
   -4.4606    0.9446    0.0000 C   0  0  0  0  0  0  0  0  0  0  0  0
   -3.5136    2.1078    0.0000 C   0  0  0  0  0  0  0  0  0  0  0  0
   -4.0475    3.5096    0.0000 C   0  0  0  0  0  0  0  0  0  0  0  0
   -5.5284    3.7482    0.0000 C   0  0  0  0  0  0  0  0  0  0  0  0
   -6.4754    2.5849    0.0000 C   0  0  0  0  0  0  0  0  0  0  0  0
   -5.9416    1.1832    0.0000 C   0  0  0  0  0  0  0  0  0  0  0  0
   -4.8738   -1.6204    0.0000 C   0  0  0  0  0  0  0  0  0  0  0  0
   -6.3547   -1.3819    0.0000 C   0  0  0  0  0  0  0  0  0  0  0  0
   -7.3018   -2.5451    0.0000 C   0  0  0  0  0  0  0  0  0  0  0  0
   -6.7679   -3.9469    0.0000 C   0  0  0  0  0  0  0  0  0  0  0  0
   -5.2870   -4.1854    0.0000 C   0  0  0  0  0  0  0  0  0  0  0  0
   -4.3399   -3.0222    0.0000 C   0  0  0  0  0  0  0  0  0  0  0  0
  1  2  1  0
  1 10  1  0
  2  3  2  0
  3  4  1  0
  4  5  2  0
  4  9  1  0
  5  6  1  0
  6  7  2  0
  7  8  1  0
  8  9  2  0
 10 11  1  0
 10 20  1  0
 10 24  1  0
 11 12  1  0
 12 13  2  0
 13 14  1  0
 14 15  2  0
 14 19  1  0
 15 16  1  0
 16 17  2  0
 17 18  1  0
 18 19  2  0
 20 21  1  0
 21 22  1  0
 22 23  1  0
 22 25  1  0
 23 24  1  0
 25 26  1  0
 25 32  1  0
 26 27  2  0
 26 31  1  0
 27 28  1  0
 28 29  2  0
 29 30  1  0
 30 31  2  0
 32 33  2  0
 32 37  1  0
 33 34  1  0
 34 35  2  0
 35 36  1  0
 36 37  2  0
M  CHG  1  10   1
M  END
>  <s_m_entry_id>  (409) 
955

>  <s_m_entry_name>  (409) 
3C-like_protease_GHDDI_ligprep.574

>  <s_m_Source_Path>  (409) 
/home/jgilaber/drug_learning/drug_learning/datasets/SAR1/GHDDI

>  <s_m_Source_File>  (409) 
3C-like_protease_GHDDI_ligprep.sdf

>  <i_m_Source_File_Index>  (409) 
574

>  <s_m_subgroup_title>  (409) 
3C-like_protease_GHDDI_ligprep

>  <s_m_subgroupid>  (409) 
3C-like_protease_GHDDI_ligprep

>  <b_m_subgroup_collapsed>  (409) 
0

$$$$
13913
     RDKit          2D

 45 47  0  0  1  0  0  0  0  0999 V2000
    1.0184   -7.2803    0.0000 C   0  0  0  0  0  0  0  0  0  0  0  0
    0.6371   -5.8296    0.0000 C   0  0  0  0  0  0  0  0  0  0  0  0
    1.7027   -4.7740    0.0000 C   0  0  0  0  0  0  0  0  0  0  0  0
   -0.8100   -5.4345    0.0000 C   0  0  0  0  0  0  0  0  0  0  0  0
   -1.1913   -3.9838    0.0000 C   0  0  0  0  0  0  0  0  0  0  0  0
   -2.6384   -3.5887    0.0000 C   0  0  0  0  0  0  0  0  0  0  0  0
   -3.0198   -2.1380    0.0000 C   0  0  0  0  0  0  0  0  0  0  0  0
   -1.9541   -1.0824    0.0000 O   0  0  0  0  0  0  0  0  0  0  0  0
   -4.4668   -1.7429    0.0000 C   0  0  0  0  0  0  0  0  0  0  0  0
   -4.8482   -0.2922    0.0000 N   0  0  0  0  0  0  0  0  0  0  0  0
   -3.7825    0.7634    0.0000 C   0  0  0  0  0  0  0  0  0  0  0  0
   -2.3355    0.3683    0.0000 O   0  0  0  0  0  0  0  0  0  0  0  0
   -4.1639    2.2141    0.0000 N   0  0  0  0  0  0  0  0  0  0  0  0
   -3.0982    3.2697    0.0000 C   0  0  0  0  0  0  0  0  0  0  0  0
   -3.4796    4.7205    0.0000 C   0  0  0  0  0  0  0  0  0  0  0  0
   -4.9266    5.1155    0.0000 O   0  0  0  0  0  0  0  0  0  0  0  0
   -5.9923    4.0599    0.0000 C   0  0  0  0  0  0  0  0  0  0  0  0
   -5.6109    2.6092    0.0000 C   0  0  0  0  0  0  0  0  0  0  0  0
   -5.5325   -2.7986    0.0000 C   0  0  0  0  0  0  0  0  0  0  0  0
   -5.1511   -4.2493    0.0000 C   0  0  0  0  0  0  0  0  0  0  0  0
   -6.9795   -2.4035    0.0000 C   0  0  0  0  0  0  0  0  0  0  0  0
   -0.1257   -2.9282    0.0000 C   0  0  0  0  0  0  0  0  0  0  0  0
   -0.5070   -1.4775    0.0000 O   0  0  0  0  0  0  0  0  0  0  0  0
    1.3214   -3.3233    0.0000 N   0  0  0  0  0  0  0  0  0  0  0  0
    2.3870   -2.2676    0.0000 C   0  0  0  0  0  0  0  0  0  0  0  0
    3.8341   -2.6627    0.0000 C   0  0  0  0  0  0  0  0  0  0  0  0
    4.8997   -1.6071    0.0000 C   0  0  0  0  0  0  0  0  0  0  0  0
    6.3468   -2.0022    0.0000 C   0  0  0  0  0  0  0  0  0  0  0  0
    7.4124   -0.9465    0.0000 C   0  0  0  0  0  0  0  0  0  0  0  0
    7.0311    0.5042    0.0000 C   0  0  0  0  0  0  0  0  0  0  0  0
    5.5840    0.8993    0.0000 C   0  0  0  0  0  0  0  0  0  0  0  0
    4.5184   -0.1564    0.0000 C   0  0  0  0  0  0  0  0  0  0  0  0
    2.0057   -0.8169    0.0000 C   0  0  0  0  0  0  0  0  0  0  0  0
    0.5586   -0.4218    0.0000 O   0  0  0  0  0  0  0  0  0  0  0  0
    3.0713    0.2387    0.0000 N   0  0  0  0  0  0  0  0  0  0  0  0
    2.6900    1.6894    0.0000 C   0  0  0  0  0  0  0  0  0  0  0  0
    3.7556    2.7451    0.0000 C   0  0  0  0  0  0  0  0  0  0  0  0
    3.3743    4.1958    0.0000 C   0  0  0  0  0  0  0  0  0  0  0  0
    1.9272    4.5908    0.0000 C   0  0  0  0  0  0  0  0  0  0  0  0
    0.8616    3.5352    0.0000 C   0  0  0  0  0  0  0  0  0  0  0  0
    1.2429    2.0845    0.0000 C   0  0  0  0  0  0  0  0  0  0  0  0
    0.1773    1.0289    0.0000 Cl  0  0  0  0  0  0  0  0  0  0  0  0
    1.5459    6.0416    0.0000 N   0  0  0  0  0  0  0  0  0  0  0  0
    0.0988    6.4366    0.0000 O   0  0  0  0  0  0  0  0  0  0  0  0
    2.6115    7.0972    0.0000 O   0  0  0  0  0  0  0  0  0  0  0  0
  1  2  1  0
  2  3  1  0
  2  4  1  0
  4  5  1  0
  5  6  1  0
  5 22  1  0
  6  7  1  0
  7  8  2  0
  7  9  1  0
  9 10  1  0
  9 19  1  0
 10 11  1  0
 11 12  2  0
 11 13  1  0
 13 14  1  0
 13 18  1  0
 14 15  1  0
 15 16  1  0
 16 17  1  0
 17 18  1  0
 19 20  1  0
 19 21  1  0
 22 23  2  0
 22 24  1  0
 24 25  1  0
 25 26  1  0
 25 33  1  0
 26 27  1  0
 27 28  2  0
 27 32  1  0
 28 29  1  0
 29 30  2  0
 30 31  1  0
 31 32  2  0
 33 34  2  0
 33 35  1  0
 35 36  1  0
 36 37  2  0
 36 41  1  0
 37 38  1  0
 38 39  2  0
 39 40  1  0
 39 43  1  0
 40 41  2  0
 41 42  1  0
 43 44  2  0
 43 45  1  0
M  CHG  2  43   1  45  -1
M  END
>  <s_m_entry_id>  (410) 
957

>  <s_m_entry_name>  (410) 
3C-like_protease_GHDDI_ligprep.576

>  <s_m_Source_Path>  (410) 
/home/jgilaber/drug_learning/drug_learning/datasets/SAR1/GHDDI

>  <s_m_Source_File>  (410) 
3C-like_protease_GHDDI_ligprep.sdf

>  <i_m_Source_File_Index>  (410) 
576

>  <s_m_subgroup_title>  (410) 
3C-like_protease_GHDDI_ligprep

>  <s_m_subgroupid>  (410) 
3C-like_protease_GHDDI_ligprep

>  <b_m_subgroup_collapsed>  (410) 
0

$$$$
13914
     RDKit          2D

 22 23  0  0  1  0  0  0  0  0999 V2000
   -6.2484   -0.3086    0.0000 N   0  0  0  0  0  0  0  0  0  0  0  0
   -4.8325    0.1866    0.0000 C   0  0  0  0  0  0  0  0  0  0  0  0
   -4.5534    1.6604    0.0000 C   0  0  0  0  0  0  0  0  0  0  0  0
   -3.1375    2.1555    0.0000 C   0  0  0  0  0  0  0  0  0  0  0  0
   -2.0007    1.1769    0.0000 C   0  0  0  0  0  0  0  0  0  0  0  0
   -0.5848    1.6721    0.0000 F   0  0  0  0  0  0  0  0  0  0  0  0
   -2.2798   -0.2969    0.0000 C   0  0  0  0  0  0  0  0  0  0  0  0
   -3.6957   -0.7921    0.0000 C   0  0  0  0  0  0  0  0  0  0  0  0
   -1.1430   -1.2755    0.0000 S   0  0  0  0  0  0  0  0  0  0  0  0
   -2.1216   -2.4123    0.0000 O   0  0  0  0  0  0  0  0  0  0  0  0
   -0.1644   -0.1387    0.0000 O   0  0  0  0  0  0  0  0  0  0  0  0
   -0.0062   -2.2541    0.0000 N   0  0  0  0  0  0  0  0  0  0  0  0
    1.4097   -1.7589    0.0000 C   0  0  0  0  0  0  0  0  0  0  0  0
    2.5465   -2.7376    0.0000 C   0  0  0  0  0  0  0  0  0  0  0  0
    3.9624   -2.2424    0.0000 C   0  0  0  0  0  0  0  0  0  0  0  0
    4.2415   -0.7686    0.0000 C   0  0  0  0  0  0  0  0  0  0  0  0
    3.1047    0.2101    0.0000 C   0  0  0  0  0  0  0  0  0  0  0  0
    1.6888   -0.2851    0.0000 C   0  0  0  0  0  0  0  0  0  0  0  0
    3.3838    1.6839    0.0000 C   0  0  0  0  0  0  0  0  0  0  0  0
    3.6629    3.1577    0.0000 F   0  0  0  0  0  0  0  0  0  0  0  0
    4.8576    1.4047    0.0000 F   0  0  0  0  0  0  0  0  0  0  0  0
    1.9100    1.9630    0.0000 F   0  0  0  0  0  0  0  0  0  0  0  0
  1  2  1  0
  2  3  2  0
  2  8  1  0
  3  4  1  0
  4  5  2  0
  5  6  1  0
  5  7  1  0
  7  8  2  0
  7  9  1  0
  9 10  2  0
  9 11  2  0
  9 12  1  0
 12 13  1  0
 13 14  2  0
 13 18  1  0
 14 15  1  0
 15 16  2  0
 16 17  1  0
 17 18  2  0
 17 19  1  0
 19 20  1  0
 19 21  1  0
 19 22  1  0
M  END
>  <s_m_entry_id>  (411) 
958

>  <s_m_entry_name>  (411) 
3C-like_protease_GHDDI_ligprep.577

>  <s_m_Source_Path>  (411) 
/home/jgilaber/drug_learning/drug_learning/datasets/SAR1/GHDDI

>  <s_m_Source_File>  (411) 
3C-like_protease_GHDDI_ligprep.sdf

>  <i_m_Source_File_Index>  (411) 
577

>  <s_m_subgroup_title>  (411) 
3C-like_protease_GHDDI_ligprep

>  <s_m_subgroupid>  (411) 
3C-like_protease_GHDDI_ligprep

>  <b_m_subgroup_collapsed>  (411) 
0

$$$$
13915
     RDKit          2D

 30 31  0  0  1  0  0  0  0  0999 V2000
   -4.2923    2.6718    0.0000 C   0  0  0  0  0  0  0  0  0  0  0  0
   -3.3675    1.4908    0.0000 O   0  0  0  0  0  0  0  0  0  0  0  0
   -1.8823    1.7013    0.0000 C   0  0  0  0  0  0  0  0  0  0  0  0
   -1.3220    3.0927    0.0000 C   0  0  0  0  0  0  0  0  0  0  0  0
    0.1632    3.3032    0.0000 C   0  0  0  0  0  0  0  0  0  0  0  0
    1.0880    2.1222    0.0000 C   0  0  0  0  0  0  0  0  0  0  0  0
    2.5732    2.3327    0.0000 C   0  0  0  0  0  0  0  0  0  0  0  0
    3.1335    3.7241    0.0000 O   0  0  0  0  0  0  0  0  0  0  0  0
    3.4980    1.1517    0.0000 C   0  0  0  0  0  0  0  0  0  0  0  0
    4.9832    1.3622    0.0000 C   0  0  0  0  0  0  0  0  0  0  0  0
    5.9080    0.1812    0.0000 C   0  0  0  0  0  0  0  0  0  0  0  0
    5.3477   -1.2102    0.0000 C   0  0  0  0  0  0  0  0  0  0  0  0
    6.2725   -2.3912    0.0000 C   0  0  0  0  0  0  0  0  0  0  0  0
    7.7577   -2.1807    0.0000 C   0  0  0  0  0  0  0  0  0  0  0  0
    8.6826   -3.3616    0.0000 O   0  0  0  0  0  0  0  0  0  0  0  0
    8.3180   -0.7893    0.0000 C   0  0  0  0  0  0  0  0  0  0  0  0
    7.3932    0.3917    0.0000 C   0  0  0  0  0  0  0  0  0  0  0  0
    0.5277    0.7308    0.0000 C   0  0  0  0  0  0  0  0  0  0  0  0
    1.4525   -0.4502    0.0000 O   0  0  0  0  0  0  0  0  0  0  0  0
   -0.9575    0.5203    0.0000 C   0  0  0  0  0  0  0  0  0  0  0  0
   -1.5178   -0.8711    0.0000 C   0  0  0  0  0  0  0  0  0  0  0  0
   -3.0030   -1.0816    0.0000 C   0  0  0  0  0  0  0  0  0  0  0  0
   -3.5633   -2.4730    0.0000 C   0  0  0  0  0  0  0  0  0  0  0  0
   -2.6384   -3.6539    0.0000 C   0  0  0  0  0  0  0  0  0  0  0  0
   -5.0484   -2.6834    0.0000 C   0  0  0  0  0  0  0  0  0  0  0  0
   -5.9733   -1.5025    0.0000 C   0  0  0  0  0  0  0  0  0  0  0  0
   -7.4584   -1.7129    0.0000 C   0  0  0  0  0  0  0  0  0  0  0  0
   -8.3833   -0.5320    0.0000 C   0  0  0  0  0  0  0  0  0  0  0  0
   -9.8684   -0.7425    0.0000 C   0  0  0  0  0  0  0  0  0  0  0  0
   -7.8230    0.8594    0.0000 C   0  0  0  0  0  0  0  0  0  0  0  0
  1  2  1  0
  2  3  1  0
  3  4  2  0
  3 20  1  0
  4  5  1  0
  5  6  2  0
  6  7  1  0
  6 18  1  0
  7  8  2  0
  7  9  1  0
  9 10  2  0
 10 11  1  0
 11 12  2  0
 11 17  1  0
 12 13  1  0
 13 14  2  0
 14 15  1  0
 14 16  1  0
 16 17  2  0
 18 19  1  0
 18 20  2  0
 20 21  1  0
 21 22  1  0
 22 23  2  0
 23 24  1  0
 23 25  1  0
 25 26  1  0
 26 27  1  0
 27 28  2  3
 28 29  1  0
 28 30  1  0
M  END
>  <s_m_entry_id>  (412) 
960

>  <s_m_entry_name>  (412) 
3C-like_protease_GHDDI_ligprep.579

>  <s_m_Source_Path>  (412) 
/home/jgilaber/drug_learning/drug_learning/datasets/SAR1/GHDDI

>  <s_m_Source_File>  (412) 
3C-like_protease_GHDDI_ligprep.sdf

>  <i_m_Source_File_Index>  (412) 
579

>  <s_m_subgroup_title>  (412) 
3C-like_protease_GHDDI_ligprep

>  <s_m_subgroupid>  (412) 
3C-like_protease_GHDDI_ligprep

>  <b_m_subgroup_collapsed>  (412) 
0

$$$$
13916
     RDKit          2D

 42 47  0  0  1  0  0  0  0  0999 V2000
  -10.5702   -2.8332    0.0000 C   0  0  0  0  0  0  0  0  0  0  0  0
   -9.0895   -3.0728    0.0000 O   0  0  0  0  0  0  0  0  0  0  0  0
   -8.1416   -1.9101    0.0000 C   0  0  0  0  0  0  0  0  0  0  0  0
   -8.6746   -0.5080    0.0000 C   0  0  0  0  0  0  0  0  0  0  0  0
   -7.7268    0.6546    0.0000 C   0  0  0  0  0  0  0  0  0  0  0  0
   -8.2597    2.0567    0.0000 O   0  0  0  0  0  0  0  0  0  0  0  0
   -6.2460    0.4151    0.0000 C   0  0  0  0  0  0  0  0  0  0  0  0
   -5.2982    1.5777    0.0000 C   0  0  0  0  0  0  0  0  0  0  0  0
   -5.8311    2.9798    0.0000 O   0  0  0  0  0  0  0  0  0  0  0  0
   -3.8174    1.3381    0.0000 C   0  0  0  0  0  0  0  0  0  0  0  0
   -3.2845   -0.0640    0.0000 C   0  0  0  0  0  0  0  0  0  0  0  0
   -4.2323   -1.2266    0.0000 O   0  0  0  0  0  0  0  0  0  0  0  0
   -5.7131   -0.9871    0.0000 C   0  0  0  0  0  0  0  0  0  0  0  0
   -6.6609   -2.1497    0.0000 C   0  0  0  0  0  0  0  0  0  0  0  0
   -1.8038   -0.3035    0.0000 C   0  0  0  0  0  0  0  0  0  0  0  0
   -1.2708   -1.7057    0.0000 C   0  0  0  0  0  0  0  0  0  0  0  0
    0.2099   -1.9452    0.0000 C   0  0  0  0  0  0  0  0  0  0  0  0
    1.1577   -0.7826    0.0000 C   0  0  0  0  0  0  0  0  0  0  0  0
    2.6385   -1.0221    0.0000 O   0  0  0  0  0  0  0  0  0  0  0  0
    3.1714   -2.4242    0.0000 C   0  0  0  0  0  0  0  0  0  0  0  0
    0.6248    0.6196    0.0000 C   0  0  0  0  0  0  0  0  0  0  0  0
   -0.8559    0.8591    0.0000 C   0  0  0  0  0  0  0  0  0  0  0  0
    1.5726    1.7822    0.0000 C   0  0  0  0  0  0  0  0  0  0  0  0
    1.0397    3.1843    0.0000 C   0  0  0  0  0  0  0  0  0  0  0  0
   -0.4411    3.4238    0.0000 O   0  0  0  0  0  0  0  0  0  0  0  0
    1.9875    4.3469    0.0000 C   0  0  0  0  0  0  0  0  0  0  0  0
    3.4682    4.1074    0.0000 C   0  0  0  0  0  0  0  0  0  0  0  0
    4.4161    5.2700    0.0000 O   0  0  0  0  0  0  0  0  0  0  0  0
    4.0012    2.7052    0.0000 C   0  0  0  0  0  0  0  0  0  0  0  0
    5.4819    2.4657    0.0000 C   0  0  0  0  0  0  0  0  0  0  0  0
    6.4298    3.6283    0.0000 O   0  0  0  0  0  0  0  0  0  0  0  0
    6.0149    1.0636    0.0000 C   0  0  0  0  0  0  0  0  0  0  0  0
    5.0671   -0.0990    0.0000 C   0  0  0  0  0  0  0  0  0  0  0  0
    3.5863    0.1405    0.0000 O   0  0  0  0  0  0  0  0  0  0  0  0
    3.0534    1.5426    0.0000 C   0  0  0  0  0  0  0  0  0  0  0  0
    5.6000   -1.5012    0.0000 C   0  0  0  0  0  0  0  0  0  0  0  0
    4.6522   -2.6638    0.0000 C   0  0  0  0  0  0  0  0  0  0  0  0
    5.1851   -4.0659    0.0000 C   0  0  0  0  0  0  0  0  0  0  0  0
    6.6659   -4.3054    0.0000 C   0  0  0  0  0  0  0  0  0  0  0  0
    7.1988   -5.7076    0.0000 O   0  0  0  0  0  0  0  0  0  0  0  0
    7.6137   -3.1428    0.0000 C   0  0  0  0  0  0  0  0  0  0  0  0
    7.0808   -1.7407    0.0000 C   0  0  0  0  0  0  0  0  0  0  0  0
  1  2  1  0
  2  3  1  0
  3  4  2  0
  3 14  1  0
  4  5  1  0
  5  6  1  0
  5  7  2  0
  7  8  1  0
  7 13  1  0
  8  9  2  0
  8 10  1  0
 10 11  2  0
 11 12  1  0
 11 15  1  0
 12 13  1  0
 13 14  2  0
 15 16  2  0
 15 22  1  0
 16 17  1  0
 17 18  2  0
 18 19  1  0
 18 21  1  0
 19 20  1  0
 21 22  2  0
 21 23  1  0
 23 24  2  0
 23 35  1  0
 24 25  1  0
 24 26  1  0
 26 27  2  0
 27 28  1  0
 27 29  1  0
 29 30  1  0
 29 35  2  0
 30 31  2  0
 30 32  1  0
 32 33  2  0
 33 34  1  0
 33 36  1  0
 34 35  1  0
 36 37  2  0
 36 42  1  0
 37 38  1  0
 38 39  2  0
 39 40  1  0
 39 41  1  0
 41 42  2  0
M  END
>  <s_m_entry_id>  (413) 
961

>  <s_m_entry_name>  (413) 
3C-like_protease_GHDDI_ligprep.580

>  <s_m_Source_Path>  (413) 
/home/jgilaber/drug_learning/drug_learning/datasets/SAR1/GHDDI

>  <s_m_Source_File>  (413) 
3C-like_protease_GHDDI_ligprep.sdf

>  <i_m_Source_File_Index>  (413) 
580

>  <s_m_subgroup_title>  (413) 
3C-like_protease_GHDDI_ligprep

>  <s_m_subgroupid>  (413) 
3C-like_protease_GHDDI_ligprep

>  <b_m_subgroup_collapsed>  (413) 
0

$$$$
13917
     RDKit          2D

 33 36  0  0  1  0  0  0  0  0999 V2000
   -2.3925   -1.0906    0.0000 C   0  0  0  0  0  0  0  0  0  0  0  0
   -1.1591   -1.9443    0.0000 C   0  0  0  0  0  0  0  0  0  0  0  0
    0.1969   -1.3030    0.0000 C   0  0  0  0  0  0  0  0  0  0  0  0
    1.4303   -2.1566    0.0000 O   0  0  0  0  0  0  0  0  0  0  0  0
    2.7863   -1.5153    0.0000 C   0  0  0  0  0  0  0  0  0  0  0  0
    4.1022   -2.2354    0.0000 N   0  0  0  0  0  0  0  0  0  0  0  0
    5.1936   -1.2065    0.0000 C   0  0  0  0  0  0  0  0  0  0  0  0
    6.6886   -1.3291    0.0000 N   0  0  0  0  0  0  0  0  0  0  0  0
    7.3299   -2.6851    0.0000 C   0  0  0  0  0  0  0  0  0  0  0  0
    7.5423   -0.0957    0.0000 C   0  0  0  0  0  0  0  0  0  0  0  0
    9.0373   -0.2183    0.0000 O   0  0  0  0  0  0  0  0  0  0  0  0
    6.9010    1.2603    0.0000 N   0  0  0  0  0  0  0  0  0  0  0  0
    7.7547    2.4937    0.0000 C   0  0  0  0  0  0  0  0  0  0  0  0
    5.4060    1.3829    0.0000 C   0  0  0  0  0  0  0  0  0  0  0  0
    4.7647    2.7389    0.0000 O   0  0  0  0  0  0  0  0  0  0  0  0
    4.5523    0.1495    0.0000 C   0  0  0  0  0  0  0  0  0  0  0  0
    3.0645   -0.0414    0.0000 N   0  0  0  0  0  0  0  0  0  0  0  0
    2.0356    1.0501    0.0000 C   0  0  0  0  0  0  0  0  0  0  0  0
    0.5759    0.7047    0.0000 C   0  0  0  0  0  0  0  0  0  0  0  0
   -0.4531    1.7962    0.0000 C   0  0  0  0  0  0  0  0  0  0  0  0
   -1.9128    1.4508    0.0000 N   0  0  0  0  0  0  0  0  0  0  0  0
   -2.9417    2.5423    0.0000 C   0  0  0  0  0  0  0  0  0  0  0  0
   -4.4014    2.1969    0.0000 C   0  0  0  0  0  0  0  0  0  0  0  0
   -4.8322    0.7601    0.0000 N   0  0  0  0  0  0  0  0  0  0  0  0
   -3.8032   -0.3314    0.0000 C   0  0  0  0  0  0  0  0  0  0  0  0
   -2.3435    0.0140    0.0000 C   0  0  0  0  0  0  0  0  0  0  0  0
   -6.2919    0.4147    0.0000 C   0  0  0  0  0  0  0  0  0  0  0  0
   -7.3208    1.5062    0.0000 C   0  0  0  0  0  0  0  0  0  0  0  0
   -8.7805    1.1608    0.0000 C   0  0  0  0  0  0  0  0  0  0  0  0
   -9.2113   -0.2760    0.0000 C   0  0  0  0  0  0  0  0  0  0  0  0
   -8.1823   -1.3674    0.0000 C   0  0  0  0  0  0  0  0  0  0  0  0
   -8.6131   -2.8043    0.0000 Cl  0  0  0  0  0  0  0  0  0  0  0  0
   -6.7226   -1.0221    0.0000 C   0  0  0  0  0  0  0  0  0  0  0  0
  1  2  1  0
  2  3  1  0
  3  4  1  0
  4  5  1  0
  5  6  2  0
  5 17  1  0
  6  7  1  0
  7  8  1  0
  7 16  2  0
  8  9  1  0
  8 10  1  0
 10 11  2  0
 10 12  1  0
 12 13  1  0
 12 14  1  0
 14 15  2  0
 14 16  1  0
 16 17  1  0
 17 18  1  0
 18 19  1  0
 19 20  1  0
 20 21  1  0
 21 22  1  0
 21 26  1  0
 22 23  1  0
 23 24  1  0
 24 25  1  0
 24 27  1  0
 25 26  1  0
 27 28  2  0
 27 33  1  0
 28 29  1  0
 29 30  2  0
 30 31  1  0
 31 32  1  0
 31 33  2  0
M  END
>  <s_m_entry_id>  (414) 
963

>  <s_m_entry_name>  (414) 
3C-like_protease_GHDDI_ligprep.582

>  <s_m_Source_Path>  (414) 
/home/jgilaber/drug_learning/drug_learning/datasets/SAR1/GHDDI

>  <s_m_Source_File>  (414) 
3C-like_protease_GHDDI_ligprep.sdf

>  <i_m_Source_File_Index>  (414) 
582

>  <s_m_subgroup_title>  (414) 
3C-like_protease_GHDDI_ligprep

>  <s_m_subgroupid>  (414) 
3C-like_protease_GHDDI_ligprep

>  <b_m_subgroup_collapsed>  (414) 
0

$$$$
13918
     RDKit          2D

 33 37  0  0  1  0  0  0  0  0999 V2000
   -6.0883   -3.2020    0.0000 O   0  0  0  0  0  0  0  0  0  0  0  0
   -5.1724   -2.0141    0.0000 C   0  0  0  0  0  0  0  0  0  0  0  0
   -3.6857   -2.2134    0.0000 O   0  0  0  0  0  0  0  0  0  0  0  0
   -5.7431   -0.6270    0.0000 C   0  0  0  0  0  0  0  0  0  0  0  0
   -7.2298   -0.4277    0.0000 C   0  0  0  0  0  0  0  0  0  0  0  0
   -7.8006    0.9595    0.0000 C   0  0  0  0  0  0  0  0  0  0  0  0
   -6.8846    2.1474    0.0000 C   0  0  0  0  0  0  0  0  0  0  0  0
   -5.3979    1.9481    0.0000 C   0  0  0  0  0  0  0  0  0  0  0  0
   -4.8272    0.5609    0.0000 C   0  0  0  0  0  0  0  0  0  0  0  0
   -3.3405    0.3616    0.0000 C   0  0  0  0  0  0  0  0  0  0  0  0
   -2.3054    1.4472    0.0000 O   0  0  0  0  0  0  0  0  0  0  0  0
   -0.9530    0.7983    0.0000 C   0  0  0  0  0  0  0  0  0  0  0  0
    0.3669    1.5109    0.0000 C   0  0  0  0  0  0  0  0  0  0  0  0
    1.6440    0.7242    0.0000 C   0  0  0  0  0  0  0  0  0  0  0  0
    1.7582   -0.7715    0.0000 C   0  0  0  0  0  0  0  0  0  0  0  0
    0.6153   -1.7430    0.0000 O   0  0  0  0  0  0  0  0  0  0  0  0
    3.2159   -1.1251    0.0000 N   0  0  0  0  0  0  0  0  0  0  0  0
    4.0026    0.1520    0.0000 N   0  0  0  0  0  0  0  0  0  0  0  0
    3.0312    1.2949    0.0000 C   0  0  0  0  0  0  0  0  0  0  0  0
    3.3848    2.7526    0.0000 C   0  0  0  0  0  0  0  0  0  0  0  0
    4.8240    3.1753    0.0000 C   0  0  0  0  0  0  0  0  0  0  0  0
    5.1776    4.6330    0.0000 C   0  0  0  0  0  0  0  0  0  0  0  0
    4.0920    5.6681    0.0000 C   0  0  0  0  0  0  0  0  0  0  0  0
    2.6528    5.2455    0.0000 C   0  0  0  0  0  0  0  0  0  0  0  0
    2.2991    3.7877    0.0000 C   0  0  0  0  0  0  0  0  0  0  0  0
    3.7866   -2.5123    0.0000 C   0  0  0  0  0  0  0  0  0  0  0  0
    2.8707   -3.7001    0.0000 C   0  0  0  0  0  0  0  0  0  0  0  0
    3.4414   -5.0873    0.0000 C   0  0  0  0  0  0  0  0  0  0  0  0
    4.9282   -5.2866    0.0000 C   0  0  0  0  0  0  0  0  0  0  0  0
    5.8441   -4.0987    0.0000 C   0  0  0  0  0  0  0  0  0  0  0  0
    5.2733   -2.7116    0.0000 C   0  0  0  0  0  0  0  0  0  0  0  0
   -1.1523   -0.6884    0.0000 C   0  0  0  0  0  0  0  0  0  0  0  0
   -2.6278   -0.9583    0.0000 C   0  0  0  0  0  0  0  0  0  0  0  0
  1  2  1  0
  2  3  2  0
  2  4  1  0
  4  5  2  0
  4  9  1  0
  5  6  1  0
  6  7  2  0
  7  8  1  0
  8  9  2  0
  9 10  1  0
 10 11  1  0
 10 33  2  0
 11 12  1  0
 12 13  1  0
 12 32  2  0
 13 14  2  0
 14 15  1  0
 14 19  1  0
 15 16  2  0
 15 17  1  0
 17 18  1  0
 17 26  1  0
 18 19  2  0
 19 20  1  0
 20 21  2  0
 20 25  1  0
 21 22  1  0
 22 23  2  0
 23 24  1  0
 24 25  2  0
 26 27  2  0
 26 31  1  0
 27 28  1  0
 28 29  2  0
 29 30  1  0
 30 31  2  0
 32 33  1  0
M  CHG  1   1  -1
M  END
>  <s_m_entry_id>  (415) 
964

>  <s_m_entry_name>  (415) 
3C-like_protease_GHDDI_ligprep.583

>  <s_m_Source_Path>  (415) 
/home/jgilaber/drug_learning/drug_learning/datasets/SAR1/GHDDI

>  <s_m_Source_File>  (415) 
3C-like_protease_GHDDI_ligprep.sdf

>  <i_m_Source_File_Index>  (415) 
583

>  <s_m_subgroup_title>  (415) 
3C-like_protease_GHDDI_ligprep

>  <s_m_subgroupid>  (415) 
3C-like_protease_GHDDI_ligprep

>  <b_m_subgroup_collapsed>  (415) 
0

$$$$
13919
     RDKit          2D

 31 33  0  0  1  0  0  0  0  0999 V2000
   -2.2016   -0.6823    0.0000 O   0  0  0  0  0  0  0  0  0  0  0  0
   -1.1713    0.4079    0.0000 C   0  0  0  0  0  0  0  0  0  0  0  0
    0.2880    0.0607    0.0000 N   0  0  0  0  0  0  0  0  0  0  0  0
    0.7170   -1.3766    0.0000 C   0  0  0  0  0  0  0  0  0  0  0  0
    2.1762   -1.7238    0.0000 C   0  0  0  0  0  0  0  0  0  0  0  0
    3.2065   -0.6336    0.0000 O   0  0  0  0  0  0  0  0  0  0  0  0
    4.6658   -0.9808    0.0000 C   0  0  0  0  0  0  0  0  0  0  0  0
    5.0948   -2.4182    0.0000 O   0  0  0  0  0  0  0  0  0  0  0  0
    5.6961    0.1094    0.0000 C   0  0  0  0  0  0  0  0  0  0  0  0
    7.1554   -0.2378    0.0000 C   0  0  0  0  0  0  0  0  0  0  0  0
    8.1857    0.8524    0.0000 C   0  0  0  0  0  0  0  0  0  0  0  0
    7.7567    2.2897    0.0000 C   0  0  0  0  0  0  0  0  0  0  0  0
    6.2974    2.6369    0.0000 C   0  0  0  0  0  0  0  0  0  0  0  0
    5.2671    1.5467    0.0000 C   0  0  0  0  0  0  0  0  0  0  0  0
   -0.3133   -2.4668    0.0000 C   0  0  0  0  0  0  0  0  0  0  0  0
    0.1156   -3.9042    0.0000 O   0  0  0  0  0  0  0  0  0  0  0  0
   -1.7726   -2.1197    0.0000 N   0  0  0  0  0  0  0  0  0  0  0  0
   -2.8029   -3.2098    0.0000 C   0  0  0  0  0  0  0  0  0  0  0  0
   -4.2622   -2.8627    0.0000 C   0  0  0  0  0  0  0  0  0  0  0  0
   -5.2925   -3.9528    0.0000 C   0  0  0  0  0  0  0  0  0  0  0  0
   -4.8635   -5.3902    0.0000 C   0  0  0  0  0  0  0  0  0  0  0  0
   -3.4042   -5.7374    0.0000 C   0  0  0  0  0  0  0  0  0  0  0  0
   -2.3739   -4.6472    0.0000 C   0  0  0  0  0  0  0  0  0  0  0  0
   -1.6002    1.8452    0.0000 C   0  0  0  0  0  0  0  0  0  0  0  0
   -3.0595    2.1924    0.0000 C   0  0  0  0  0  0  0  0  0  0  0  0
   -3.4885    3.6298    0.0000 C   0  0  0  0  0  0  0  0  0  0  0  0
   -2.4582    4.7199    0.0000 C   0  0  0  0  0  0  0  0  0  0  0  0
   -2.8872    6.1573    0.0000 C   0  0  0  0  0  0  0  0  0  0  0  0
   -4.3464    6.5045    0.0000 C   0  0  0  0  0  0  0  0  0  0  0  0
   -5.3767    5.4143    0.0000 C   0  0  0  0  0  0  0  0  0  0  0  0
   -4.9478    3.9769    0.0000 C   0  0  0  0  0  0  0  0  0  0  0  0
  1  2  2  0
  2  3  1  0
  2 24  1  0
  3  4  1  0
  4  5  1  0
  4 15  1  0
  5  6  1  0
  6  7  1  0
  7  8  2  0
  7  9  1  0
  9 10  2  0
  9 14  1  0
 10 11  1  0
 11 12  2  0
 12 13  1  0
 13 14  2  0
 15 16  2  0
 15 17  1  0
 17 18  1  0
 18 19  1  0
 18 23  1  0
 19 20  1  0
 20 21  1  0
 21 22  1  0
 22 23  1  0
 24 25  2  0
 25 26  1  0
 26 27  2  0
 26 31  1  0
 27 28  1  0
 28 29  2  0
 29 30  1  0
 30 31  2  0
M  END
>  <s_m_entry_id>  (416) 
966

>  <s_m_entry_name>  (416) 
3C-like_protease_GHDDI_ligprep.585

>  <s_m_Source_Path>  (416) 
/home/jgilaber/drug_learning/drug_learning/datasets/SAR1/GHDDI

>  <s_m_Source_File>  (416) 
3C-like_protease_GHDDI_ligprep.sdf

>  <i_m_Source_File_Index>  (416) 
585

>  <s_m_subgroup_title>  (416) 
3C-like_protease_GHDDI_ligprep

>  <s_m_subgroupid>  (416) 
3C-like_protease_GHDDI_ligprep

>  <b_m_subgroup_collapsed>  (416) 
0

$$$$
13920
     RDKit          2D

 31 33  0  0  1  0  0  0  0  0999 V2000
   -2.2016   -0.6823    0.0000 O   0  0  0  0  0  0  0  0  0  0  0  0
   -1.1713    0.4079    0.0000 C   0  0  0  0  0  0  0  0  0  0  0  0
    0.2880    0.0607    0.0000 N   0  0  0  0  0  0  0  0  0  0  0  0
    0.7170   -1.3766    0.0000 C   0  0  0  0  0  0  0  0  0  0  0  0
    2.1762   -1.7238    0.0000 C   0  0  0  0  0  0  0  0  0  0  0  0
    3.2065   -0.6336    0.0000 O   0  0  0  0  0  0  0  0  0  0  0  0
    4.6658   -0.9808    0.0000 C   0  0  0  0  0  0  0  0  0  0  0  0
    5.0948   -2.4182    0.0000 O   0  0  0  0  0  0  0  0  0  0  0  0
    5.6961    0.1094    0.0000 C   0  0  0  0  0  0  0  0  0  0  0  0
    7.1554   -0.2378    0.0000 C   0  0  0  0  0  0  0  0  0  0  0  0
    8.1857    0.8524    0.0000 C   0  0  0  0  0  0  0  0  0  0  0  0
    7.7567    2.2897    0.0000 C   0  0  0  0  0  0  0  0  0  0  0  0
    6.2974    2.6369    0.0000 C   0  0  0  0  0  0  0  0  0  0  0  0
    5.2671    1.5467    0.0000 C   0  0  0  0  0  0  0  0  0  0  0  0
   -0.3133   -2.4668    0.0000 C   0  0  0  0  0  0  0  0  0  0  0  0
    0.1156   -3.9042    0.0000 O   0  0  0  0  0  0  0  0  0  0  0  0
   -1.7726   -2.1197    0.0000 N   0  0  0  0  0  0  0  0  0  0  0  0
   -2.8029   -3.2098    0.0000 C   0  0  0  0  0  0  0  0  0  0  0  0
   -4.2622   -2.8627    0.0000 C   0  0  0  0  0  0  0  0  0  0  0  0
   -5.2925   -3.9528    0.0000 C   0  0  0  0  0  0  0  0  0  0  0  0
   -4.8635   -5.3902    0.0000 C   0  0  0  0  0  0  0  0  0  0  0  0
   -3.4042   -5.7374    0.0000 C   0  0  0  0  0  0  0  0  0  0  0  0
   -2.3739   -4.6472    0.0000 C   0  0  0  0  0  0  0  0  0  0  0  0
   -1.6002    1.8452    0.0000 C   0  0  0  0  0  0  0  0  0  0  0  0
   -3.0595    2.1924    0.0000 C   0  0  0  0  0  0  0  0  0  0  0  0
   -3.4885    3.6298    0.0000 C   0  0  0  0  0  0  0  0  0  0  0  0
   -2.4582    4.7199    0.0000 C   0  0  0  0  0  0  0  0  0  0  0  0
   -2.8872    6.1573    0.0000 C   0  0  0  0  0  0  0  0  0  0  0  0
   -4.3464    6.5045    0.0000 C   0  0  0  0  0  0  0  0  0  0  0  0
   -5.3767    5.4143    0.0000 C   0  0  0  0  0  0  0  0  0  0  0  0
   -4.9478    3.9769    0.0000 C   0  0  0  0  0  0  0  0  0  0  0  0
  1  2  2  0
  2  3  1  0
  2 24  1  0
  3  4  1  0
  4  5  1  0
  4 15  1  0
  5  6  1  0
  6  7  1  0
  7  8  2  0
  7  9  1  0
  9 10  2  0
  9 14  1  0
 10 11  1  0
 11 12  2  0
 12 13  1  0
 13 14  2  0
 15 16  2  0
 15 17  1  0
 17 18  1  0
 18 19  1  0
 18 23  1  0
 19 20  1  0
 20 21  1  0
 21 22  1  0
 22 23  1  0
 24 25  2  0
 25 26  1  0
 26 27  2  0
 26 31  1  0
 27 28  1  0
 28 29  2  0
 29 30  1  0
 30 31  2  0
M  END
>  <s_m_entry_id>  (417) 
968

>  <s_m_entry_name>  (417) 
3C-like_protease_GHDDI_ligprep.587

>  <s_m_Source_Path>  (417) 
/home/jgilaber/drug_learning/drug_learning/datasets/SAR1/GHDDI

>  <s_m_Source_File>  (417) 
3C-like_protease_GHDDI_ligprep.sdf

>  <i_m_Source_File_Index>  (417) 
587

>  <s_m_subgroup_title>  (417) 
3C-like_protease_GHDDI_ligprep

>  <s_m_subgroupid>  (417) 
3C-like_protease_GHDDI_ligprep

>  <b_m_subgroup_collapsed>  (417) 
0

$$$$
13921
     RDKit          2D

 42 44  0  0  1  0  0  0  0  0999 V2000
   -8.6266    0.3412    0.0000 C   0  0  0  0  0  0  0  0  0  0  0  0
   -7.7456   -0.8728    0.0000 C   0  0  0  0  0  0  0  0  0  0  0  0
   -6.2537   -0.7168    0.0000 O   0  0  0  0  0  0  0  0  0  0  0  0
   -5.3727   -1.9308    0.0000 C   0  0  0  0  0  0  0  0  0  0  0  0
   -5.9836   -3.3008    0.0000 O   0  0  0  0  0  0  0  0  0  0  0  0
   -3.8809   -1.7749    0.0000 C   0  0  0  0  0  0  0  0  0  0  0  0
   -2.9999   -2.9889    0.0000 C   0  0  0  0  0  0  0  0  0  0  0  0
   -1.5080   -2.8329    0.0000 C   0  0  0  0  0  0  0  0  0  0  0  0
   -0.6270   -4.0469    0.0000 C   0  0  0  0  0  0  0  0  0  0  0  0
    0.8649   -3.8910    0.0000 C   0  0  0  0  0  0  0  0  0  0  0  0
    1.7459   -5.1050    0.0000 C   0  0  0  0  0  0  0  0  0  0  0  0
    3.2378   -4.9490    0.0000 C   0  0  0  0  0  0  0  0  0  0  0  0
    3.8486   -3.5790    0.0000 C   0  0  0  0  0  0  0  0  0  0  0  0
    2.9676   -2.3650    0.0000 C   0  0  0  0  0  0  0  0  0  0  0  0
    1.4757   -2.5210    0.0000 C   0  0  0  0  0  0  0  0  0  0  0  0
   -0.8971   -1.4629    0.0000 N   0  0  0  0  0  0  0  0  0  0  0  0
   -1.7781   -0.2489    0.0000 C   0  0  0  0  0  0  0  0  0  0  0  0
   -3.2700   -0.4049    0.0000 O   0  0  0  0  0  0  0  0  0  0  0  0
   -1.1673    1.1211    0.0000 C   0  0  0  0  0  0  0  0  0  0  0  0
   -2.0483    2.3351    0.0000 C   0  0  0  0  0  0  0  0  0  0  0  0
   -3.5401    2.1791    0.0000 C   0  0  0  0  0  0  0  0  0  0  0  0
   -4.1510    0.8091    0.0000 C   0  0  0  0  0  0  0  0  0  0  0  0
   -5.6429    0.6532    0.0000 C   0  0  0  0  0  0  0  0  0  0  0  0
   -6.5239    1.8672    0.0000 C   0  0  0  0  0  0  0  0  0  0  0  0
   -5.9130    3.2371    0.0000 C   0  0  0  0  0  0  0  0  0  0  0  0
   -4.4212    3.3931    0.0000 C   0  0  0  0  0  0  0  0  0  0  0  0
    0.3246    1.2770    0.0000 N   0  0  0  0  0  0  0  0  0  0  0  0
    0.9355    2.6470    0.0000 C   0  0  0  0  0  0  0  0  0  0  0  0
    0.0545    3.8610    0.0000 O   0  0  0  0  0  0  0  0  0  0  0  0
    2.4273    2.8030    0.0000 C   0  0  0  0  0  0  0  0  0  0  0  0
    3.3083    1.5890    0.0000 N   0  0  0  0  0  0  0  0  0  0  0  0
    4.8002    1.7449    0.0000 C   0  0  0  0  0  0  0  0  0  0  0  0
    5.4111    3.1149    0.0000 O   0  0  0  0  0  0  0  0  0  0  0  0
    5.6812    0.5309    0.0000 C   0  0  0  0  0  0  0  0  0  0  0  0
    7.1812    0.5301    0.0000 C   0  0  0  0  0  0  0  0  0  0  0  0
    7.6439   -0.8968    0.0000 C   0  0  0  0  0  0  0  0  0  0  0  0
    9.0703   -1.3611    0.0000 C   0  0  0  0  0  0  0  0  0  0  0  0
    6.4299   -1.7778    0.0000 O   0  0  0  0  0  0  0  0  0  0  0  0
    5.2169   -0.8954    0.0000 N   0  0  0  0  0  0  0  0  0  0  0  0
    3.0382    4.1729    0.0000 C   0  0  0  0  0  0  0  0  0  0  0  0
    4.5301    4.3289    0.0000 C   0  0  0  0  0  0  0  0  0  0  0  0
    2.1572    5.3870    0.0000 C   0  0  0  0  0  0  0  0  0  0  0  0
  1  2  1  0
  2  3  1  0
  3  4  1  0
  4  5  2  0
  4  6  1  0
  6  7  2  0
  7  8  1  0
  8  9  1  0
  8 16  1  0
  9 10  1  0
 10 11  2  0
 10 15  1  0
 11 12  1  0
 12 13  2  0
 13 14  1  0
 14 15  2  0
 16 17  1  0
 17 18  2  0
 17 19  1  0
 19 20  1  0
 19 27  1  0
 20 21  1  0
 21 22  2  0
 21 26  1  0
 22 23  1  0
 23 24  2  0
 24 25  1  0
 25 26  2  0
 27 28  1  0
 28 29  2  0
 28 30  1  0
 30 31  1  0
 30 40  1  0
 31 32  1  0
 32 33  2  0
 32 34  1  0
 34 35  1  0
 34 39  2  0
 35 36  2  0
 36 37  1  0
 36 38  1  0
 38 39  1  0
 40 41  1  0
 40 42  1  0
M  END
>  <s_m_entry_id>  (418) 
969

>  <s_m_entry_name>  (418) 
3C-like_protease_GHDDI_ligprep.588

>  <s_m_Source_Path>  (418) 
/home/jgilaber/drug_learning/drug_learning/datasets/SAR1/GHDDI

>  <s_m_Source_File>  (418) 
3C-like_protease_GHDDI_ligprep.sdf

>  <i_m_Source_File_Index>  (418) 
588

>  <s_m_subgroup_title>  (418) 
3C-like_protease_GHDDI_ligprep

>  <s_m_subgroupid>  (418) 
3C-like_protease_GHDDI_ligprep

>  <b_m_subgroup_collapsed>  (418) 
0

$$$$
13922
     RDKit          2D

 24 26  0  0  1  0  0  0  0  0999 V2000
   -3.4628    4.8619    0.0000 C   0  0  0  0  0  0  0  0  0  0  0  0
   -4.0734    3.4918    0.0000 C   0  0  0  0  0  0  0  0  0  0  0  0
   -3.1921    2.2780    0.0000 C   0  0  0  0  0  0  0  0  0  0  0  0
   -3.8028    0.9079    0.0000 C   0  0  0  0  0  0  0  0  0  0  0  0
   -2.9215   -0.3060    0.0000 C   0  0  0  0  0  0  0  0  0  0  0  0
   -1.4297   -0.1497    0.0000 C   0  0  0  0  0  0  0  0  0  0  0  0
   -0.5484   -1.3636    0.0000 C   0  0  0  0  0  0  0  0  0  0  0  0
   -1.1591   -2.7337    0.0000 C   0  0  0  0  0  0  0  0  0  0  0  0
   -2.6509   -2.8899    0.0000 C   0  0  0  0  0  0  0  0  0  0  0  0
   -3.2615   -4.2600    0.0000 O   0  0  0  0  0  0  0  0  0  0  0  0
   -3.5321   -1.6761    0.0000 C   0  0  0  0  0  0  0  0  0  0  0  0
   -5.0240   -1.8323    0.0000 O   0  0  0  0  0  0  0  0  0  0  0  0
    0.9434   -1.2073    0.0000 C   0  0  0  0  0  0  0  0  0  0  0  0
    1.8246   -2.4212    0.0000 C   0  0  0  0  0  0  0  0  0  0  0  0
    3.3165   -2.2649    0.0000 C   0  0  0  0  0  0  0  0  0  0  0  0
    3.9271   -0.8948    0.0000 C   0  0  0  0  0  0  0  0  0  0  0  0
    5.4189   -0.7386    0.0000 C   0  0  0  0  0  0  0  0  0  0  0  0
    6.0295    0.6315    0.0000 C   0  0  0  0  0  0  0  0  0  0  0  0
    5.1483    1.8453    0.0000 C   0  0  0  0  0  0  0  0  0  0  0  0
    5.7589    3.2154    0.0000 O   0  0  0  0  0  0  0  0  0  0  0  0
    3.6564    1.6891    0.0000 C   0  0  0  0  0  0  0  0  0  0  0  0
    3.0458    0.3190    0.0000 C   0  0  0  0  0  0  0  0  0  0  0  0
    1.5540    0.1628    0.0000 O   0  0  0  0  0  0  0  0  0  0  0  0
   -5.5652    3.3356    0.0000 C   0  0  0  0  0  0  0  0  0  0  0  0
  1  2  1  0
  2  3  2  3
  2 24  1  0
  3  4  1  0
  4  5  1  0
  5  6  2  0
  5 11  1  0
  6  7  1  0
  7  8  2  0
  7 13  1  0
  8  9  1  0
  9 10  1  0
  9 11  2  0
 11 12  1  0
 13 14  1  0
 13 23  1  0
 14 15  1  0
 15 16  1  0
 16 17  2  0
 16 22  1  0
 17 18  1  0
 18 19  2  0
 19 20  1  0
 19 21  1  0
 21 22  2  0
 22 23  1  0
M  END
>  <s_m_entry_id>  (419) 
970

>  <s_m_entry_name>  (419) 
3C-like_protease_GHDDI_ligprep.589

>  <s_m_Source_Path>  (419) 
/home/jgilaber/drug_learning/drug_learning/datasets/SAR1/GHDDI

>  <s_m_Source_File>  (419) 
3C-like_protease_GHDDI_ligprep.sdf

>  <i_m_Source_File_Index>  (419) 
589

>  <s_m_subgroup_title>  (419) 
3C-like_protease_GHDDI_ligprep

>  <s_m_subgroupid>  (419) 
3C-like_protease_GHDDI_ligprep

>  <b_m_subgroup_collapsed>  (419) 
0

$$$$
13923
     RDKit          2D

 24 25  0  0  1  0  0  0  0  0999 V2000
   -2.0686   -2.8747    0.0000 C   0  0  0  0  0  0  0  0  0  0  0  0
   -2.4687   -1.4290    0.0000 O   0  0  0  0  0  0  0  0  0  0  0  0
   -3.9207   -1.0527    0.0000 C   0  0  0  0  0  0  0  0  0  0  0  0
   -4.9727   -2.1221    0.0000 C   0  0  0  0  0  0  0  0  0  0  0  0
   -6.4247   -1.7457    0.0000 C   0  0  0  0  0  0  0  0  0  0  0  0
   -6.8248   -0.3001    0.0000 C   0  0  0  0  0  0  0  0  0  0  0  0
   -5.7729    0.7692    0.0000 C   0  0  0  0  0  0  0  0  0  0  0  0
   -4.3209    0.3929    0.0000 C   0  0  0  0  0  0  0  0  0  0  0  0
   -3.2689    1.4623    0.0000 C   0  0  0  0  0  0  0  0  0  0  0  0
   -1.8169    1.0859    0.0000 N   0  0  0  0  0  0  0  0  0  0  0  0
   -0.7650    2.1553    0.0000 C   0  0  0  0  0  0  0  0  0  0  0  0
   -1.1651    3.6009    0.0000 O   0  0  0  0  0  0  0  0  0  0  0  0
    0.6870    1.7790    0.0000 C   0  0  0  0  0  0  0  0  0  0  0  0
    1.7389    2.8483    0.0000 C   0  0  0  0  0  0  0  0  0  0  0  0
    1.0871    0.3333    0.0000 N   0  0  0  0  0  0  0  0  0  0  0  0
    2.5392   -0.0430    0.0000 S   0  0  0  0  0  0  0  0  0  0  0  0
    2.9155    1.4090    0.0000 O   0  0  0  0  0  0  0  0  0  0  0  0
    2.1629   -1.4950    0.0000 O   0  0  0  0  0  0  0  0  0  0  0  0
    3.9912   -0.4193    0.0000 C   0  0  0  0  0  0  0  0  0  0  0  0
    4.3913   -1.8650    0.0000 C   0  0  0  0  0  0  0  0  0  0  0  0
    5.8433   -2.2413    0.0000 C   0  0  0  0  0  0  0  0  0  0  0  0
    6.8953   -1.1720    0.0000 C   0  0  0  0  0  0  0  0  0  0  0  0
    6.4951    0.2737    0.0000 C   0  0  0  0  0  0  0  0  0  0  0  0
    5.0431    0.6500    0.0000 C   0  0  0  0  0  0  0  0  0  0  0  0
  1  2  1  0
  2  3  1  0
  3  4  2  0
  3  8  1  0
  4  5  1  0
  5  6  2  0
  6  7  1  0
  7  8  2  0
  8  9  1  0
  9 10  1  0
 10 11  1  0
 11 12  2  0
 11 13  1  0
 13 14  1  0
 13 15  1  0
 15 16  1  0
 16 17  2  0
 16 18  2  0
 16 19  1  0
 19 20  2  0
 19 24  1  0
 20 21  1  0
 21 22  2  0
 22 23  1  0
 23 24  2  0
M  END
>  <s_m_entry_id>  (420) 
972

>  <s_m_entry_name>  (420) 
3C-like_protease_GHDDI_ligprep.591

>  <s_m_Source_Path>  (420) 
/home/jgilaber/drug_learning/drug_learning/datasets/SAR1/GHDDI

>  <s_m_Source_File>  (420) 
3C-like_protease_GHDDI_ligprep.sdf

>  <i_m_Source_File_Index>  (420) 
591

>  <s_m_subgroup_title>  (420) 
3C-like_protease_GHDDI_ligprep

>  <s_m_subgroupid>  (420) 
3C-like_protease_GHDDI_ligprep

>  <b_m_subgroup_collapsed>  (420) 
0

$$$$
13924
     RDKit          2D

 45 47  0  0  1  0  0  0  0  0999 V2000
   -9.0152   -0.2720    0.0000 C   0  0  0  0  0  0  0  0  0  0  0  0
   -8.0434   -1.4147    0.0000 C   0  0  0  0  0  0  0  0  0  0  0  0
   -6.5680   -1.1444    0.0000 O   0  0  0  0  0  0  0  0  0  0  0  0
   -5.5962   -2.2871    0.0000 C   0  0  0  0  0  0  0  0  0  0  0  0
   -6.0998   -3.7000    0.0000 O   0  0  0  0  0  0  0  0  0  0  0  0
   -4.1207   -2.0168    0.0000 C   0  0  0  0  0  0  0  0  0  0  0  0
   -3.1489   -3.1594    0.0000 C   0  0  0  0  0  0  0  0  0  0  0  0
   -1.6735   -2.8892    0.0000 C   0  0  0  0  0  0  0  0  0  0  0  0
   -0.7017   -4.0318    0.0000 C   0  0  0  0  0  0  0  0  0  0  0  0
    0.7737   -3.7615    0.0000 C   0  0  0  0  0  0  0  0  0  0  0  0
    1.7455   -4.9042    0.0000 C   0  0  0  0  0  0  0  0  0  0  0  0
    3.2210   -4.6339    0.0000 C   0  0  0  0  0  0  0  0  0  0  0  0
    3.7246   -3.2210    0.0000 C   0  0  0  0  0  0  0  0  0  0  0  0
    2.7529   -2.0783    0.0000 C   0  0  0  0  0  0  0  0  0  0  0  0
    1.2774   -2.3486    0.0000 C   0  0  0  0  0  0  0  0  0  0  0  0
   -1.1698   -1.4762    0.0000 N   0  0  0  0  0  0  0  0  0  0  0  0
   -2.1416   -0.3336    0.0000 C   0  0  0  0  0  0  0  0  0  0  0  0
   -3.6171   -0.6039    0.0000 O   0  0  0  0  0  0  0  0  0  0  0  0
   -1.6379    1.0793    0.0000 C   0  0  0  0  0  0  0  0  0  0  0  0
   -0.1625    1.3496    0.0000 C   0  0  0  0  0  0  0  0  0  0  0  0
    0.3412    2.7625    0.0000 C   0  0  0  0  0  0  0  0  0  0  0  0
   -0.6306    3.9051    0.0000 O   0  0  0  0  0  0  0  0  0  0  0  0
    1.8166    3.0328    0.0000 C   0  0  0  0  0  0  0  0  0  0  0  0
    2.7884    1.8901    0.0000 N   0  0  0  0  0  0  0  0  0  0  0  0
    4.2639    2.1604    0.0000 C   0  0  0  0  0  0  0  0  0  0  0  0
    4.7675    3.5733    0.0000 O   0  0  0  0  0  0  0  0  0  0  0  0
    5.2356    1.0177    0.0000 O   0  0  0  0  0  0  0  0  0  0  0  0
    6.7111    1.2880    0.0000 C   0  0  0  0  0  0  0  0  0  0  0  0
    7.6829    0.1454    0.0000 C   0  0  0  0  0  0  0  0  0  0  0  0
    7.1792   -1.2675    0.0000 C   0  0  0  0  0  0  0  0  0  0  0  0
    8.1510   -2.4102    0.0000 C   0  0  0  0  0  0  0  0  0  0  0  0
    9.6265   -2.1399    0.0000 C   0  0  0  0  0  0  0  0  0  0  0  0
   10.1301   -0.7270    0.0000 C   0  0  0  0  0  0  0  0  0  0  0  0
    9.1583    0.4156    0.0000 C   0  0  0  0  0  0  0  0  0  0  0  0
    2.3203    4.4457    0.0000 C   0  0  0  0  0  0  0  0  0  0  0  0
    3.7957    4.7159    0.0000 C   0  0  0  0  0  0  0  0  0  0  0  0
    1.3485    5.5883    0.0000 C   0  0  0  0  0  0  0  0  0  0  0  0
   -2.6097    2.2220    0.0000 C   0  0  0  0  0  0  0  0  0  0  0  0
   -4.0852    1.9517    0.0000 C   0  0  0  0  0  0  0  0  0  0  0  0
   -5.0570    3.0943    0.0000 C   0  0  0  0  0  0  0  0  0  0  0  0
   -6.5324    2.8241    0.0000 C   0  0  0  0  0  0  0  0  0  0  0  0
   -7.0361    1.4111    0.0000 C   0  0  0  0  0  0  0  0  0  0  0  0
   -8.5115    1.1409    0.0000 F   0  0  0  0  0  0  0  0  0  0  0  0
   -6.0643    0.2685    0.0000 C   0  0  0  0  0  0  0  0  0  0  0  0
   -4.5888    0.5388    0.0000 C   0  0  0  0  0  0  0  0  0  0  0  0
  1  2  1  0
  2  3  1  0
  3  4  1  0
  4  5  2  0
  4  6  1  0
  6  7  2  0
  7  8  1  0
  8  9  1  0
  8 16  1  0
  9 10  1  0
 10 11  2  0
 10 15  1  0
 11 12  1  0
 12 13  2  0
 13 14  1  0
 14 15  2  0
 16 17  1  0
 17 18  2  0
 17 19  1  0
 19 20  1  0
 19 38  1  0
 20 21  1  0
 21 22  2  0
 21 23  1  0
 23 24  1  0
 23 35  1  0
 24 25  1  0
 25 26  2  0
 25 27  1  0
 27 28  1  0
 28 29  1  0
 29 30  2  0
 29 34  1  0
 30 31  1  0
 31 32  2  0
 32 33  1  0
 33 34  2  0
 35 36  1  0
 35 37  1  0
 38 39  1  0
 39 40  2  0
 39 45  1  0
 40 41  1  0
 41 42  2  0
 42 43  1  0
 42 44  1  0
 44 45  2  0
M  END
>  <s_m_entry_id>  (421) 
973

>  <s_m_entry_name>  (421) 
3C-like_protease_GHDDI_ligprep.592

>  <s_m_Source_Path>  (421) 
/home/jgilaber/drug_learning/drug_learning/datasets/SAR1/GHDDI

>  <s_m_Source_File>  (421) 
3C-like_protease_GHDDI_ligprep.sdf

>  <i_m_Source_File_Index>  (421) 
592

>  <s_m_subgroup_title>  (421) 
3C-like_protease_GHDDI_ligprep

>  <s_m_subgroupid>  (421) 
3C-like_protease_GHDDI_ligprep

>  <b_m_subgroup_collapsed>  (421) 
0

$$$$
13925
     RDKit          2D

 28 31  0  0  1  0  0  0  0  0999 V2000
   -9.4178    0.8712    0.0000 Cl  0  0  0  0  0  0  0  0  0  0  0  0
   -7.9218    0.9808    0.0000 C   0  0  0  0  0  0  0  0  0  0  0  0
   -7.2687    2.3311    0.0000 C   0  0  0  0  0  0  0  0  0  0  0  0
   -5.7727    2.4407    0.0000 C   0  0  0  0  0  0  0  0  0  0  0  0
   -4.9298    1.2000    0.0000 C   0  0  0  0  0  0  0  0  0  0  0  0
   -5.5829   -0.1504    0.0000 C   0  0  0  0  0  0  0  0  0  0  0  0
   -4.7399   -1.3912    0.0000 C   0  0  0  0  0  0  0  0  0  0  0  0
   -3.2440   -1.2815    0.0000 N   0  0  0  0  0  0  0  0  0  0  0  0
   -2.4010   -2.5223    0.0000 C   0  0  0  0  0  0  0  0  0  0  0  0
   -0.9050   -2.4127    0.0000 C   0  0  0  0  0  0  0  0  0  0  0  0
   -0.2520   -1.0623    0.0000 N   0  0  0  0  0  0  0  0  0  0  0  0
   -1.0949    0.1784    0.0000 C   0  0  0  0  0  0  0  0  0  0  0  0
   -2.5909    0.0688    0.0000 C   0  0  0  0  0  0  0  0  0  0  0  0
    1.2440   -0.9527    0.0000 S   0  0  0  0  0  0  0  0  0  0  0  0
    1.1344    0.5433    0.0000 O   0  0  0  0  0  0  0  0  0  0  0  0
    1.3536   -2.4487    0.0000 O   0  0  0  0  0  0  0  0  0  0  0  0
    2.7400   -0.8431    0.0000 C   0  0  0  0  0  0  0  0  0  0  0  0
    3.5829   -2.0839    0.0000 C   0  0  0  0  0  0  0  0  0  0  0  0
    5.0789   -1.9743    0.0000 C   0  0  0  0  0  0  0  0  0  0  0  0
    5.7320   -0.6239    0.0000 C   0  0  0  0  0  0  0  0  0  0  0  0
    7.1725   -0.2057    0.0000 N   0  0  0  0  0  0  0  0  0  0  0  0
    7.2199    1.2936    0.0000 C   0  0  0  0  0  0  0  0  0  0  0  0
    8.4606    2.1365    0.0000 O   0  0  0  0  0  0  0  0  0  0  0  0
    5.8086    1.8019    0.0000 C   0  0  0  0  0  0  0  0  0  0  0  0
    5.3904    3.2424    0.0000 O   0  0  0  0  0  0  0  0  0  0  0  0
    4.8891    0.6168    0.0000 C   0  0  0  0  0  0  0  0  0  0  0  0
    3.3931    0.5072    0.0000 C   0  0  0  0  0  0  0  0  0  0  0  0
   -7.0788   -0.2600    0.0000 C   0  0  0  0  0  0  0  0  0  0  0  0
  1  2  1  0
  2  3  2  0
  2 28  1  0
  3  4  1  0
  4  5  2  0
  5  6  1  0
  6  7  1  0
  6 28  2  0
  7  8  1  0
  8  9  1  0
  8 13  1  0
  9 10  1  0
 10 11  1  0
 11 12  1  0
 11 14  1  0
 12 13  1  0
 14 15  2  0
 14 16  2  0
 14 17  1  0
 17 18  2  0
 17 27  1  0
 18 19  1  0
 19 20  2  0
 20 21  1  0
 20 26  1  0
 21 22  1  0
 22 23  2  0
 22 24  1  0
 24 25  2  0
 24 26  1  0
 26 27  2  0
M  END
>  <s_m_entry_id>  (422) 
974

>  <s_m_entry_name>  (422) 
3C-like_protease_GHDDI_ligprep.593

>  <s_m_Source_Path>  (422) 
/home/jgilaber/drug_learning/drug_learning/datasets/SAR1/GHDDI

>  <s_m_Source_File>  (422) 
3C-like_protease_GHDDI_ligprep.sdf

>  <i_m_Source_File_Index>  (422) 
593

>  <s_m_subgroup_title>  (422) 
3C-like_protease_GHDDI_ligprep

>  <s_m_subgroupid>  (422) 
3C-like_protease_GHDDI_ligprep

>  <b_m_subgroup_collapsed>  (422) 
0

$$$$
13926
     RDKit          2D

 33 36  0  0  1  0  0  0  0  0999 V2000
   -2.9512    3.0204    0.0000 C   0  0  0  0  0  0  0  0  0  0  0  0
   -4.4240    2.7359    0.0000 O   0  0  0  0  0  0  0  0  0  0  0  0
   -4.9139    1.3181    0.0000 C   0  0  0  0  0  0  0  0  0  0  0  0
   -3.9310    0.1850    0.0000 C   0  0  0  0  0  0  0  0  0  0  0  0
   -4.4209   -1.2328    0.0000 C   0  0  0  0  0  0  0  0  0  0  0  0
   -3.4381   -2.3659    0.0000 C   0  0  0  0  0  0  0  0  0  0  0  0
   -1.9654   -2.0813    0.0000 N   0  0  0  0  0  0  0  0  0  0  0  0
   -0.9825   -3.2145    0.0000 C   0  0  0  0  0  0  0  0  0  0  0  0
    0.4902   -2.9299    0.0000 C   0  0  0  0  0  0  0  0  0  0  0  0
    0.9802   -1.5121    0.0000 N   0  0  0  0  0  0  0  0  0  0  0  0
   -0.0027   -0.3790    0.0000 C   0  0  0  0  0  0  0  0  0  0  0  0
   -1.4754   -0.6636    0.0000 C   0  0  0  0  0  0  0  0  0  0  0  0
    2.4529   -1.2276    0.0000 S   0  0  0  0  0  0  0  0  0  0  0  0
    2.1683    0.2452    0.0000 O   0  0  0  0  0  0  0  0  0  0  0  0
    2.7375   -2.7003    0.0000 O   0  0  0  0  0  0  0  0  0  0  0  0
    3.9257   -0.9430    0.0000 C   0  0  0  0  0  0  0  0  0  0  0  0
    4.9085   -2.0761    0.0000 C   0  0  0  0  0  0  0  0  0  0  0  0
    6.3813   -1.7915    0.0000 C   0  0  0  0  0  0  0  0  0  0  0  0
    6.8712   -0.3738    0.0000 C   0  0  0  0  0  0  0  0  0  0  0  0
    8.2526    0.2108    0.0000 N   0  0  0  0  0  0  0  0  0  0  0  0
    8.1235    1.7052    0.0000 C   0  0  0  0  0  0  0  0  0  0  0  0
    9.2566    2.6881    0.0000 O   0  0  0  0  0  0  0  0  0  0  0  0
    6.6623    2.0443    0.0000 C   0  0  0  0  0  0  0  0  0  0  0  0
    6.0777    3.4257    0.0000 O   0  0  0  0  0  0  0  0  0  0  0  0
    5.8883    0.7594    0.0000 C   0  0  0  0  0  0  0  0  0  0  0  0
    4.4156    0.4748    0.0000 C   0  0  0  0  0  0  0  0  0  0  0  0
   -5.8937   -1.5174    0.0000 C   0  0  0  0  0  0  0  0  0  0  0  0
   -6.8765   -0.3842    0.0000 C   0  0  0  0  0  0  0  0  0  0  0  0
   -8.3493   -0.6688    0.0000 O   0  0  0  0  0  0  0  0  0  0  0  0
   -9.3321    0.4643    0.0000 C   0  0  0  0  0  0  0  0  0  0  0  0
   -6.3866    1.0335    0.0000 C   0  0  0  0  0  0  0  0  0  0  0  0
   -7.3695    2.1667    0.0000 O   0  0  0  0  0  0  0  0  0  0  0  0
   -6.8796    3.5844    0.0000 C   0  0  0  0  0  0  0  0  0  0  0  0
  1  2  1  0
  2  3  1  0
  3  4  2  0
  3 31  1  0
  4  5  1  0
  5  6  1  0
  5 27  2  0
  6  7  1  0
  7  8  1  0
  7 12  1  0
  8  9  1  0
  9 10  1  0
 10 11  1  0
 10 13  1  0
 11 12  1  0
 13 14  2  0
 13 15  2  0
 13 16  1  0
 16 17  2  0
 16 26  1  0
 17 18  1  0
 18 19  2  0
 19 20  1  0
 19 25  1  0
 20 21  1  0
 21 22  2  0
 21 23  1  0
 23 24  2  0
 23 25  1  0
 25 26  2  0
 27 28  1  0
 28 29  1  0
 28 31  2  0
 29 30  1  0
 31 32  1  0
 32 33  1  0
M  END
>  <s_m_entry_id>  (423) 
976

>  <s_m_entry_name>  (423) 
3C-like_protease_GHDDI_ligprep.595

>  <s_m_Source_Path>  (423) 
/home/jgilaber/drug_learning/drug_learning/datasets/SAR1/GHDDI

>  <s_m_Source_File>  (423) 
3C-like_protease_GHDDI_ligprep.sdf

>  <i_m_Source_File_Index>  (423) 
595

>  <s_m_subgroup_title>  (423) 
3C-like_protease_GHDDI_ligprep

>  <s_m_subgroupid>  (423) 
3C-like_protease_GHDDI_ligprep

>  <b_m_subgroup_collapsed>  (423) 
0

$$$$
13932
     RDKit          2D

 28 31  0  0  1  0  0  0  0  0999 V2000
   -9.2375    0.9047    0.0000 O   0  0  0  0  0  0  0  0  0  0  0  0
   -7.8284    0.3904    0.0000 C   0  0  0  0  0  0  0  0  0  0  0  0
   -7.4163   -1.0519    0.0000 N   0  0  0  0  0  0  0  0  0  0  0  0
   -5.9173   -1.1056    0.0000 C   0  0  0  0  0  0  0  0  0  0  0  0
   -4.9541   -2.2556    0.0000 C   0  0  0  0  0  0  0  0  0  0  0  0
   -3.4767   -1.9964    0.0000 C   0  0  0  0  0  0  0  0  0  0  0  0
   -2.9624   -0.5874    0.0000 C   0  0  0  0  0  0  0  0  0  0  0  0
   -3.9255    0.5626    0.0000 C   0  0  0  0  0  0  0  0  0  0  0  0
   -5.4029    0.3034    0.0000 C   0  0  0  0  0  0  0  0  0  0  0  0
   -6.5841    1.2280    0.0000 C   0  0  0  0  0  0  0  0  0  0  0  0
   -6.5304    2.7271    0.0000 O   0  0  0  0  0  0  0  0  0  0  0  0
   -1.4849   -0.3283    0.0000 S   0  0  0  0  0  0  0  0  0  0  0  0
   -1.2258   -1.8057    0.0000 O   0  0  0  0  0  0  0  0  0  0  0  0
   -1.7440    1.1492    0.0000 O   0  0  0  0  0  0  0  0  0  0  0  0
   -0.0075   -0.0691    0.0000 N   0  0  0  0  0  0  0  0  0  0  0  0
    0.9557   -1.2191    0.0000 C   0  0  0  0  0  0  0  0  0  0  0  0
    2.4331   -0.9600    0.0000 C   0  0  0  0  0  0  0  0  0  0  0  0
    2.9474    0.4491    0.0000 N   0  0  0  0  0  0  0  0  0  0  0  0
    4.4249    0.7082    0.0000 C   0  0  0  0  0  0  0  0  0  0  0  0
    5.3880   -0.4417    0.0000 C   0  0  0  0  0  0  0  0  0  0  0  0
    6.8655   -0.1826    0.0000 C   0  0  0  0  0  0  0  0  0  0  0  0
    7.8286   -1.3326    0.0000 C   0  0  0  0  0  0  0  0  0  0  0  0
    9.3060   -1.0734    0.0000 C   0  0  0  0  0  0  0  0  0  0  0  0
    9.8204    0.3356    0.0000 C   0  0  0  0  0  0  0  0  0  0  0  0
    8.8572    1.4856    0.0000 C   0  0  0  0  0  0  0  0  0  0  0  0
    7.3798    1.2265    0.0000 C   0  0  0  0  0  0  0  0  0  0  0  0
    1.9843    1.5991    0.0000 C   0  0  0  0  0  0  0  0  0  0  0  0
    0.5069    1.3399    0.0000 C   0  0  0  0  0  0  0  0  0  0  0  0
  1  2  2  0
  2  3  1  0
  2 10  1  0
  3  4  1  0
  4  5  2  0
  4  9  1  0
  5  6  1  0
  6  7  2  0
  7  8  1  0
  7 12  1  0
  8  9  2  0
  9 10  1  0
 10 11  2  0
 12 13  2  0
 12 14  2  0
 12 15  1  0
 15 16  1  0
 15 28  1  0
 16 17  1  0
 17 18  1  0
 18 19  1  0
 18 27  1  0
 19 20  1  0
 20 21  1  0
 21 22  2  0
 21 26  1  0
 22 23  1  0
 23 24  2  0
 24 25  1  0
 25 26  2  0
 27 28  1  0
M  END
>  <s_m_entry_id>  (424) 
983

>  <s_m_entry_name>  (424) 
3C-like_protease_GHDDI_ligprep.602

>  <s_m_Source_Path>  (424) 
/home/jgilaber/drug_learning/drug_learning/datasets/SAR1/GHDDI

>  <s_m_Source_File>  (424) 
3C-like_protease_GHDDI_ligprep.sdf

>  <i_m_Source_File_Index>  (424) 
602

>  <s_m_subgroup_title>  (424) 
3C-like_protease_GHDDI_ligprep

>  <s_m_subgroupid>  (424) 
3C-like_protease_GHDDI_ligprep

>  <b_m_subgroup_collapsed>  (424) 
0

$$$$
13935
     RDKit          2D

 43 48  0  0  1  0  0  0  0  0999 V2000
    6.4024   -6.4278    0.0000 C   0  0  0  0  0  0  0  0  0  0  0  0
    7.2968   -5.2236    0.0000 O   0  0  0  0  0  0  0  0  0  0  0  0
    6.7011   -3.8470    0.0000 C   0  0  0  0  0  0  0  0  0  0  0  0
    5.2110   -3.6746    0.0000 C   0  0  0  0  0  0  0  0  0  0  0  0
    4.6153   -2.2979    0.0000 C   0  0  0  0  0  0  0  0  0  0  0  0
    5.5096   -1.0937    0.0000 C   0  0  0  0  0  0  0  0  0  0  0  0
    6.9997   -1.2661    0.0000 C   0  0  0  0  0  0  0  0  0  0  0  0
    7.5954   -2.6428    0.0000 C   0  0  0  0  0  0  0  0  0  0  0  0
    4.9139    0.2829    0.0000 C   0  0  0  0  0  0  0  0  0  0  0  0
    5.8083    1.4871    0.0000 C   0  0  0  0  0  0  0  0  0  0  0  0
    5.2126    2.8638    0.0000 C   0  0  0  0  0  0  0  0  0  0  0  0
    6.1069    4.0680    0.0000 O   0  0  0  0  0  0  0  0  0  0  0  0
    3.7225    3.0362    0.0000 C   0  0  0  0  0  0  0  0  0  0  0  0
    3.1268    4.4128    0.0000 C   0  0  0  0  0  0  0  0  0  0  0  0
    4.0211    5.6171    0.0000 O   0  0  0  0  0  0  0  0  0  0  0  0
    1.6367    4.5853    0.0000 C   0  0  0  0  0  0  0  0  0  0  0  0
    0.7424    3.3810    0.0000 C   0  0  0  0  0  0  0  0  0  0  0  0
   -0.7477    3.5535    0.0000 O   0  0  0  0  0  0  0  0  0  0  0  0
    1.3381    2.0044    0.0000 C   0  0  0  0  0  0  0  0  0  0  0  0
    2.8282    1.8320    0.0000 C   0  0  0  0  0  0  0  0  0  0  0  0
    3.4239    0.4553    0.0000 O   0  0  0  0  0  0  0  0  0  0  0  0
    0.4438    0.8002    0.0000 C   0  0  0  0  0  0  0  0  0  0  0  0
   -1.0463    0.9726    0.0000 C   0  0  0  0  0  0  0  0  0  0  0  0
   -1.9406   -0.2316    0.0000 C   0  0  0  0  0  0  0  0  0  0  0  0
   -1.3449   -1.6083    0.0000 C   0  0  0  0  0  0  0  0  0  0  0  0
    0.1451   -1.7807    0.0000 C   0  0  0  0  0  0  0  0  0  0  0  0
    1.0395   -0.5765    0.0000 C   0  0  0  0  0  0  0  0  0  0  0  0
    2.5295   -0.7489    0.0000 O   0  0  0  0  0  0  0  0  0  0  0  0
    3.1252   -2.1255    0.0000 C   0  0  0  0  0  0  0  0  0  0  0  0
   -3.4307   -0.0592    0.0000 C   0  0  0  0  0  0  0  0  0  0  0  0
   -4.0264    1.3174    0.0000 C   0  0  0  0  0  0  0  0  0  0  0  0
   -5.5165    1.4899    0.0000 C   0  0  0  0  0  0  0  0  0  0  0  0
   -6.1122    2.8665    0.0000 O   0  0  0  0  0  0  0  0  0  0  0  0
   -6.4108    0.2856    0.0000 C   0  0  0  0  0  0  0  0  0  0  0  0
   -7.9009    0.4580    0.0000 C   0  0  0  0  0  0  0  0  0  0  0  0
   -8.4966    1.8347    0.0000 O   0  0  0  0  0  0  0  0  0  0  0  0
   -8.7952   -0.7462    0.0000 C   0  0  0  0  0  0  0  0  0  0  0  0
   -8.1995   -2.1228    0.0000 C   0  0  0  0  0  0  0  0  0  0  0  0
   -9.0939   -3.3270    0.0000 O   0  0  0  0  0  0  0  0  0  0  0  0
  -10.5839   -3.1546    0.0000 C   0  0  0  0  0  0  0  0  0  0  0  0
   -6.7095   -2.2952    0.0000 C   0  0  0  0  0  0  0  0  0  0  0  0
   -5.8151   -1.0910    0.0000 C   0  0  0  0  0  0  0  0  0  0  0  0
   -4.3251   -1.2634    0.0000 O   0  0  0  0  0  0  0  0  0  0  0  0
  1  2  1  0
  2  3  1  0
  3  4  2  0
  3  8  1  0
  4  5  1  0
  5  6  2  0
  6  7  1  0
  6  9  1  0
  7  8  2  0
  9 10  2  0
  9 21  1  0
 10 11  1  0
 11 12  2  0
 11 13  1  0
 13 14  2  0
 13 20  1  0
 14 15  1  0
 14 16  1  0
 16 17  2  0
 17 18  1  0
 17 19  1  0
 19 20  2  0
 19 22  1  0
 20 21  1  0
 22 23  2  0
 22 27  1  0
 23 24  1  0
 24 25  2  0
 24 30  1  0
 25 26  1  0
 26 27  2  0
 27 28  1  0
 28 29  1  0
 30 31  2  0
 30 43  1  0
 31 32  1  0
 32 33  2  0
 32 34  1  0
 34 35  2  0
 34 42  1  0
 35 36  1  0
 35 37  1  0
 37 38  2  0
 38 39  1  0
 38 41  1  0
 39 40  1  0
 41 42  2  0
 42 43  1  0
M  END
>  <s_m_entry_id>  (425) 
986

>  <s_m_entry_name>  (425) 
3C-like_protease_GHDDI_ligprep.605

>  <s_m_Source_Path>  (425) 
/home/jgilaber/drug_learning/drug_learning/datasets/SAR1/GHDDI

>  <s_m_Source_File>  (425) 
3C-like_protease_GHDDI_ligprep.sdf

>  <i_m_Source_File_Index>  (425) 
605

>  <s_m_subgroup_title>  (425) 
3C-like_protease_GHDDI_ligprep

>  <s_m_subgroupid>  (425) 
3C-like_protease_GHDDI_ligprep

>  <b_m_subgroup_collapsed>  (425) 
0

$$$$
13936
     RDKit          2D

 38 42  0  0  1  0  0  0  0  0999 V2000
   -0.8629   -2.7706    0.0000 C   0  0  0  0  0  0  0  0  0  0  0  0
   -0.2123   -1.4191    0.0000 C   0  0  0  0  0  0  0  0  0  0  0  0
    1.2835   -1.3068    0.0000 O   0  0  0  0  0  0  0  0  0  0  0  0
    1.9342    0.0448    0.0000 C   0  0  0  0  0  0  0  0  0  0  0  0
    3.0078    1.0923    0.0000 O   0  0  0  0  0  0  0  0  0  0  0  0
    2.6375    2.5458    0.0000 C   0  0  0  0  0  0  0  0  0  0  0  0
    3.7111    3.5933    0.0000 C   0  0  0  0  0  0  0  0  0  0  0  0
    3.3408    5.0469    0.0000 C   0  0  0  0  0  0  0  0  0  0  0  0
    1.8968    5.4530    0.0000 C   0  0  0  0  0  0  0  0  0  0  0  0
    1.5264    6.9065    0.0000 C   0  0  0  0  0  0  0  0  0  0  0  0
    0.8231    4.4054    0.0000 C   0  0  0  0  0  0  0  0  0  0  0  0
    1.1935    2.9519    0.0000 C   0  0  0  0  0  0  0  0  0  0  0  0
    0.1198    1.9044    0.0000 C   0  0  0  0  0  0  0  0  0  0  0  0
   -1.3770    2.0013    0.0000 N   0  0  0  0  0  0  0  0  0  0  0  0
   -1.9318    0.6077    0.0000 N   0  0  0  0  0  0  0  0  0  0  0  0
   -0.7778   -0.3506    0.0000 S   0  0  0  0  0  0  0  0  0  0  0  0
    0.4902    0.4508    0.0000 C   0  0  0  0  0  0  0  0  0  0  0  0
    0.7065   -1.0335    0.0000 O   0  0  0  0  0  0  0  0  0  0  0  0
   -0.4707   -1.9630    0.0000 C   0  0  0  0  0  0  0  0  0  0  0  0
   -0.2543   -3.4474    0.0000 C   0  0  0  0  0  0  0  0  0  0  0  0
   -3.3854    0.2373    0.0000 C   0  0  0  0  0  0  0  0  0  0  0  0
   -4.4329    1.3110    0.0000 C   0  0  0  0  0  0  0  0  0  0  0  0
   -5.8864    0.9406    0.0000 C   0  0  0  0  0  0  0  0  0  0  0  0
   -6.2925   -0.5034    0.0000 C   0  0  0  0  0  0  0  0  0  0  0  0
   -5.2450   -1.5770    0.0000 C   0  0  0  0  0  0  0  0  0  0  0  0
   -3.7914   -1.2067    0.0000 C   0  0  0  0  0  0  0  0  0  0  0  0
   -2.7439   -2.2803    0.0000 Cl  0  0  0  0  0  0  0  0  0  0  0  0
   -7.7461   -0.8737    0.0000 N   0  0  0  0  0  0  0  0  0  0  0  0
   -8.1521   -2.3177    0.0000 O   0  0  0  0  0  0  0  0  0  0  0  0
   -8.7936    0.1999    0.0000 O   0  0  0  0  0  0  0  0  0  0  0  0
    3.1522   -0.8307    0.0000 C   0  0  0  0  0  0  0  0  0  0  0  0
    3.0031   -2.3232    0.0000 C   0  0  0  0  0  0  0  0  0  0  0  0
    4.2211   -3.1987    0.0000 C   0  0  0  0  0  0  0  0  0  0  0  0
    5.5883   -2.5816    0.0000 C   0  0  0  0  0  0  0  0  0  0  0  0
    6.8063   -3.4570    0.0000 O   0  0  0  0  0  0  0  0  0  0  0  0
    6.6572   -4.9496    0.0000 C   0  0  0  0  0  0  0  0  0  0  0  0
    5.7374   -1.0890    0.0000 C   0  0  0  0  0  0  0  0  0  0  0  0
    4.5194   -0.2136    0.0000 C   0  0  0  0  0  0  0  0  0  0  0  0
  1  2  1  0
  2  3  1  0
  3  4  1  0
  4  5  1  0
  4 17  1  0
  4 31  1  0
  5  6  1  0
  6  7  2  0
  6 12  1  0
  7  8  1  0
  8  9  2  0
  9 10  1  0
  9 11  1  0
 11 12  2  0
 12 13  1  0
 13 14  2  0
 13 17  1  0
 14 15  1  0
 15 16  1  0
 15 21  1  0
 16 17  1  0
 17 18  1  0
 18 19  1  0
 19 20  1  0
 21 22  2  0
 21 26  1  0
 22 23  1  0
 23 24  2  0
 24 25  1  0
 24 28  1  0
 25 26  2  0
 26 27  1  0
 28 29  2  0
 28 30  1  0
 31 32  2  0
 31 38  1  0
 32 33  1  0
 33 34  2  0
 34 35  1  0
 34 37  1  0
 35 36  1  0
 37 38  2  0
M  CHG  2  28   1  30  -1
M  END
>  <s_m_entry_id>  (426) 
987

>  <s_m_entry_name>  (426) 
3C-like_protease_GHDDI_ligprep.606

>  <s_m_Source_Path>  (426) 
/home/jgilaber/drug_learning/drug_learning/datasets/SAR1/GHDDI

>  <s_m_Source_File>  (426) 
3C-like_protease_GHDDI_ligprep.sdf

>  <i_m_Source_File_Index>  (426) 
606

>  <s_m_subgroup_title>  (426) 
3C-like_protease_GHDDI_ligprep

>  <s_m_subgroupid>  (426) 
3C-like_protease_GHDDI_ligprep

>  <b_m_subgroup_collapsed>  (426) 
0

$$$$
13939
     RDKit          2D

 40 39  0  0  1  0  0  0  0  0999 V2000
   -2.4652    4.8817    0.0000 C   0  0  0  0  0  0  0  0  0  0  0  0
   -1.6498    3.6227    0.0000 C   0  0  0  0  0  0  0  0  0  0  0  0
   -2.3324    2.2870    0.0000 C   0  0  0  0  0  0  0  0  0  0  0  0
   -0.1518    3.6993    0.0000 C   0  0  0  0  0  0  0  0  0  0  0  0
    0.6636    2.4403    0.0000 C   0  0  0  0  0  0  0  0  0  0  0  0
   -0.0190    1.1047    0.0000 N   0  0  0  0  0  0  0  0  0  0  0  0
    0.7964   -0.1544    0.0000 C   0  0  0  0  0  0  0  0  0  0  0  0
    2.2945   -0.0777    0.0000 O   0  0  0  0  0  0  0  0  0  0  0  0
    0.1138   -1.4900    0.0000 C   0  0  0  0  0  0  0  0  0  0  0  0
   -1.3842   -1.5667    0.0000 N   0  0  0  0  0  0  0  0  0  0  0  0
   -2.0669   -2.9024    0.0000 C   0  0  0  0  0  0  0  0  0  0  0  0
   -1.2514   -4.1614    0.0000 O   0  0  0  0  0  0  0  0  0  0  0  0
   -3.5649   -2.9790    0.0000 C   0  0  0  0  0  0  0  0  0  0  0  0
   -4.2475   -4.3147    0.0000 C   0  0  0  0  0  0  0  0  0  0  0  0
   -4.3803   -1.7200    0.0000 N   0  0  0  0  0  0  0  0  0  0  0  0
   -5.8784   -1.7967    0.0000 C   0  0  0  0  0  0  0  0  0  0  0  0
   -6.5610   -3.1324    0.0000 O   0  0  0  0  0  0  0  0  0  0  0  0
   -6.6938   -0.5377    0.0000 C   0  0  0  0  0  0  0  0  0  0  0  0
   -8.1918   -0.6144    0.0000 C   0  0  0  0  0  0  0  0  0  0  0  0
   -9.0072    0.6447    0.0000 O   0  0  0  0  0  0  0  0  0  0  0  0
   -6.0111    0.7980    0.0000 N   0  0  0  0  0  0  0  0  0  0  0  0
   -6.8266    2.0570    0.0000 C   0  0  0  0  0  0  0  0  0  0  0  0
   -8.3246    1.9803    0.0000 O   0  0  0  0  0  0  0  0  0  0  0  0
   -6.1439    3.3927    0.0000 C   0  0  0  0  0  0  0  0  0  0  0  0
    0.9292   -2.7490    0.0000 C   0  0  0  0  0  0  0  0  0  0  0  0
    0.2466   -4.0847    0.0000 C   0  0  0  0  0  0  0  0  0  0  0  0
    2.4273   -2.6724    0.0000 C   0  0  0  0  0  0  0  0  0  0  0  0
    2.1617    2.5170    0.0000 C   0  0  0  0  0  0  0  0  0  0  0  0
    2.8443    3.8527    0.0000 O   0  0  0  0  0  0  0  0  0  0  0  0
    2.9771    1.2580    0.0000 N   0  0  0  0  0  0  0  0  0  0  0  0
    4.4751    1.3347    0.0000 C   0  0  0  0  0  0  0  0  0  0  0  0
    5.2905    0.0756    0.0000 C   0  0  0  0  0  0  0  0  0  0  0  0
    6.7886    0.1523    0.0000 C   0  0  0  0  0  0  0  0  0  0  0  0
    7.6040   -1.1067    0.0000 C   0  0  0  0  0  0  0  0  0  0  0  0
    6.9214   -2.4424    0.0000 O   0  0  0  0  0  0  0  0  0  0  0  0
    9.1020   -1.0300    0.0000 N   0  0  0  0  0  0  0  0  0  0  0  0
    9.9175   -2.2890    0.0000 C   0  0  0  0  0  0  0  0  0  0  0  0
    9.7847    0.3057    0.0000 C   0  0  0  0  0  0  0  0  0  0  0  0
    5.1578    2.6703    0.0000 C   0  0  0  0  0  0  0  0  0  0  0  0
    6.6558    2.7470    0.0000 O   0  0  0  0  0  0  0  0  0  0  0  0
  1  2  1  0
  2  3  1  0
  2  4  1  0
  4  5  1  0
  5  6  1  0
  5 28  1  0
  6  7  1  0
  7  8  2  0
  7  9  1  0
  9 10  1  0
  9 25  1  0
 10 11  1  0
 11 12  2  0
 11 13  1  0
 13 14  1  0
 13 15  1  0
 15 16  1  0
 16 17  2  0
 16 18  1  0
 18 19  1  0
 18 21  1  0
 19 20  1  0
 21 22  1  0
 22 23  2  0
 22 24  1  0
 25 26  1  0
 25 27  1  0
 28 29  2  0
 28 30  1  0
 30 31  1  0
 31 32  1  0
 31 39  1  0
 32 33  1  0
 33 34  1  0
 34 35  2  0
 34 36  1  0
 36 37  1  0
 36 38  1  0
 39 40  2  0
M  END
>  <s_m_entry_id>  (427) 
994

>  <s_m_entry_name>  (427) 
3C-like_protease_GHDDI_ligprep.613

>  <s_m_Source_Path>  (427) 
/home/jgilaber/drug_learning/drug_learning/datasets/SAR1/GHDDI

>  <s_m_Source_File>  (427) 
3C-like_protease_GHDDI_ligprep.sdf

>  <i_m_Source_File_Index>  (427) 
613

>  <s_m_subgroup_title>  (427) 
3C-like_protease_GHDDI_ligprep

>  <s_m_subgroupid>  (427) 
3C-like_protease_GHDDI_ligprep

>  <b_m_subgroup_collapsed>  (427) 
0

$$$$
13941
     RDKit          2D

 34 38  0  0  1  0  0  0  0  0999 V2000
   -5.9004   -3.6446    0.0000 O   0  0  0  0  0  0  0  0  0  0  0  0
   -5.1140   -2.3672    0.0000 C   0  0  0  0  0  0  0  0  0  0  0  0
   -3.6146   -2.4095    0.0000 O   0  0  0  0  0  0  0  0  0  0  0  0
   -5.8271   -1.0475    0.0000 C   0  0  0  0  0  0  0  0  0  0  0  0
   -7.3265   -1.0052    0.0000 C   0  0  0  0  0  0  0  0  0  0  0  0
   -8.0396    0.3144    0.0000 C   0  0  0  0  0  0  0  0  0  0  0  0
   -7.2533    1.5918    0.0000 C   0  0  0  0  0  0  0  0  0  0  0  0
   -5.7539    1.5495    0.0000 C   0  0  0  0  0  0  0  0  0  0  0  0
   -5.0408    0.2298    0.0000 C   0  0  0  0  0  0  0  0  0  0  0  0
   -3.5414    0.1876    0.0000 C   0  0  0  0  0  0  0  0  0  0  0  0
   -2.6259    1.3757    0.0000 O   0  0  0  0  0  0  0  0  0  0  0  0
   -1.2129    0.8722    0.0000 C   0  0  0  0  0  0  0  0  0  0  0  0
    0.0250    1.7193    0.0000 C   0  0  0  0  0  0  0  0  0  0  0  0
    1.3776    1.0708    0.0000 C   0  0  0  0  0  0  0  0  0  0  0  0
    1.6479   -0.4046    0.0000 C   0  0  0  0  0  0  0  0  0  0  0  0
    0.6132   -1.4906    0.0000 O   0  0  0  0  0  0  0  0  0  0  0  0
    3.1347   -0.6034    0.0000 N   0  0  0  0  0  0  0  0  0  0  0  0
    3.7832    0.7492    0.0000 N   0  0  0  0  0  0  0  0  0  0  0  0
    2.6972    1.7839    0.0000 C   0  0  0  0  0  0  0  0  0  0  0  0
    2.8960    3.2707    0.0000 C   0  0  0  0  0  0  0  0  0  0  0  0
    4.2830    3.8419    0.0000 C   0  0  0  0  0  0  0  0  0  0  0  0
    4.4818    5.3287    0.0000 C   0  0  0  0  0  0  0  0  0  0  0  0
    3.2936    6.2442    0.0000 C   0  0  0  0  0  0  0  0  0  0  0  0
    1.9066    5.6730    0.0000 C   0  0  0  0  0  0  0  0  0  0  0  0
    1.7078    4.1862    0.0000 C   0  0  0  0  0  0  0  0  0  0  0  0
    3.8478   -1.9231    0.0000 C   0  0  0  0  0  0  0  0  0  0  0  0
    3.0615   -3.2005    0.0000 C   0  0  0  0  0  0  0  0  0  0  0  0
    3.7745   -4.5201    0.0000 C   0  0  0  0  0  0  0  0  0  0  0  0
    5.2739   -4.5624    0.0000 C   0  0  0  0  0  0  0  0  0  0  0  0
    5.9870   -5.8821    0.0000 F   0  0  0  0  0  0  0  0  0  0  0  0
    6.0603   -3.2850    0.0000 C   0  0  0  0  0  0  0  0  0  0  0  0
    5.3472   -1.9654    0.0000 C   0  0  0  0  0  0  0  0  0  0  0  0
   -1.2552   -0.6272    0.0000 C   0  0  0  0  0  0  0  0  0  0  0  0
   -2.6943   -1.0503    0.0000 C   0  0  0  0  0  0  0  0  0  0  0  0
  1  2  1  0
  2  3  2  0
  2  4  1  0
  4  5  2  0
  4  9  1  0
  5  6  1  0
  6  7  2  0
  7  8  1  0
  8  9  2  0
  9 10  1  0
 10 11  1  0
 10 34  2  0
 11 12  1  0
 12 13  1  0
 12 33  2  0
 13 14  2  0
 14 15  1  0
 14 19  1  0
 15 16  2  0
 15 17  1  0
 17 18  1  0
 17 26  1  0
 18 19  2  0
 19 20  1  0
 20 21  2  0
 20 25  1  0
 21 22  1  0
 22 23  2  0
 23 24  1  0
 24 25  2  0
 26 27  2  0
 26 32  1  0
 27 28  1  0
 28 29  2  0
 29 30  1  0
 29 31  1  0
 31 32  2  0
 33 34  1  0
M  CHG  1   1  -1
M  END
>  <s_m_entry_id>  (428) 
997

>  <s_m_entry_name>  (428) 
3C-like_protease_GHDDI_ligprep.616

>  <s_m_Source_Path>  (428) 
/home/jgilaber/drug_learning/drug_learning/datasets/SAR1/GHDDI

>  <s_m_Source_File>  (428) 
3C-like_protease_GHDDI_ligprep.sdf

>  <i_m_Source_File_Index>  (428) 
616

>  <s_m_subgroup_title>  (428) 
3C-like_protease_GHDDI_ligprep

>  <s_m_subgroupid>  (428) 
3C-like_protease_GHDDI_ligprep

>  <b_m_subgroup_collapsed>  (428) 
0

$$$$
13943
     RDKit          2D

 44 46  0  0  1  0  0  0  0  0999 V2000
   -9.2109   -0.1359    0.0000 C   0  0  0  0  0  0  0  0  0  0  0  0
   -8.2529   -1.2901    0.0000 C   0  0  0  0  0  0  0  0  0  0  0  0
   -6.7743   -1.0375    0.0000 O   0  0  0  0  0  0  0  0  0  0  0  0
   -5.8163   -2.1917    0.0000 C   0  0  0  0  0  0  0  0  0  0  0  0
   -6.3368   -3.5985    0.0000 O   0  0  0  0  0  0  0  0  0  0  0  0
   -4.3377   -1.9391    0.0000 C   0  0  0  0  0  0  0  0  0  0  0  0
   -3.3796   -3.0933    0.0000 C   0  0  0  0  0  0  0  0  0  0  0  0
   -1.9011   -2.8407    0.0000 C   0  0  0  0  0  0  0  0  0  0  0  0
   -0.9430   -3.9949    0.0000 C   0  0  0  0  0  0  0  0  0  0  0  0
    0.5356   -3.7423    0.0000 C   0  0  0  0  0  0  0  0  0  0  0  0
    1.4936   -4.8965    0.0000 C   0  0  0  0  0  0  0  0  0  0  0  0
    2.9722   -4.6439    0.0000 C   0  0  0  0  0  0  0  0  0  0  0  0
    3.4927   -3.2371    0.0000 C   0  0  0  0  0  0  0  0  0  0  0  0
    2.5347   -2.0829    0.0000 C   0  0  0  0  0  0  0  0  0  0  0  0
    1.0561   -2.3355    0.0000 C   0  0  0  0  0  0  0  0  0  0  0  0
   -1.3805   -1.4339    0.0000 N   0  0  0  0  0  0  0  0  0  0  0  0
   -2.3386   -0.2797    0.0000 C   0  0  0  0  0  0  0  0  0  0  0  0
   -3.8171   -0.5323    0.0000 O   0  0  0  0  0  0  0  0  0  0  0  0
   -1.8180    1.1271    0.0000 C   0  0  0  0  0  0  0  0  0  0  0  0
   -0.3395    1.3797    0.0000 C   0  0  0  0  0  0  0  0  0  0  0  0
    0.1811    2.7865    0.0000 C   0  0  0  0  0  0  0  0  0  0  0  0
   -0.7770    3.9406    0.0000 O   0  0  0  0  0  0  0  0  0  0  0  0
    1.6597    3.0391    0.0000 C   0  0  0  0  0  0  0  0  0  0  0  0
    2.6177    1.8849    0.0000 N   0  0  0  0  0  0  0  0  0  0  0  0
    4.0963    2.1375    0.0000 C   0  0  0  0  0  0  0  0  0  0  0  0
    4.6168    3.5443    0.0000 O   0  0  0  0  0  0  0  0  0  0  0  0
    5.0543    0.9833    0.0000 O   0  0  0  0  0  0  0  0  0  0  0  0
    6.5329    1.2359    0.0000 C   0  0  0  0  0  0  0  0  0  0  0  0
    7.4909    0.0817    0.0000 C   0  0  0  0  0  0  0  0  0  0  0  0
    6.9704   -1.3251    0.0000 C   0  0  0  0  0  0  0  0  0  0  0  0
    7.9285   -2.4793    0.0000 C   0  0  0  0  0  0  0  0  0  0  0  0
    9.4070   -2.2267    0.0000 C   0  0  0  0  0  0  0  0  0  0  0  0
    9.9276   -0.8199    0.0000 C   0  0  0  0  0  0  0  0  0  0  0  0
    8.9695    0.3343    0.0000 C   0  0  0  0  0  0  0  0  0  0  0  0
    2.1802    4.4458    0.0000 C   0  0  0  0  0  0  0  0  0  0  0  0
    3.6588    4.6984    0.0000 C   0  0  0  0  0  0  0  0  0  0  0  0
    1.2221    5.6000    0.0000 C   0  0  0  0  0  0  0  0  0  0  0  0
   -2.7761    2.2813    0.0000 C   0  0  0  0  0  0  0  0  0  0  0  0
   -4.2547    2.0287    0.0000 C   0  0  0  0  0  0  0  0  0  0  0  0
   -4.7752    0.6219    0.0000 C   0  0  0  0  0  0  0  0  0  0  0  0
   -6.2538    0.3693    0.0000 C   0  0  0  0  0  0  0  0  0  0  0  0
   -7.2118    1.5235    0.0000 C   0  0  0  0  0  0  0  0  0  0  0  0
   -6.6913    2.9302    0.0000 C   0  0  0  0  0  0  0  0  0  0  0  0
   -5.2127    3.1828    0.0000 C   0  0  0  0  0  0  0  0  0  0  0  0
  1  2  1  0
  2  3  1  0
  3  4  1  0
  4  5  2  0
  4  6  1  0
  6  7  2  0
  7  8  1  0
  8  9  1  0
  8 16  1  0
  9 10  1  0
 10 11  2  0
 10 15  1  0
 11 12  1  0
 12 13  2  0
 13 14  1  0
 14 15  2  0
 16 17  1  0
 17 18  2  0
 17 19  1  0
 19 20  1  0
 19 38  1  0
 20 21  1  0
 21 22  2  0
 21 23  1  0
 23 24  1  0
 23 35  1  0
 24 25  1  0
 25 26  2  0
 25 27  1  0
 27 28  1  0
 28 29  1  0
 29 30  2  0
 29 34  1  0
 30 31  1  0
 31 32  2  0
 32 33  1  0
 33 34  2  0
 35 36  1  0
 35 37  1  0
 38 39  1  0
 39 40  2  0
 39 44  1  0
 40 41  1  0
 41 42  2  0
 42 43  1  0
 43 44  2  0
M  END
>  <s_m_entry_id>  (429) 
1000

>  <s_m_entry_name>  (429) 
3C-like_protease_GHDDI_ligprep.619

>  <s_m_Source_Path>  (429) 
/home/jgilaber/drug_learning/drug_learning/datasets/SAR1/GHDDI

>  <s_m_Source_File>  (429) 
3C-like_protease_GHDDI_ligprep.sdf

>  <i_m_Source_File_Index>  (429) 
619

>  <s_m_subgroup_title>  (429) 
3C-like_protease_GHDDI_ligprep

>  <s_m_subgroupid>  (429) 
3C-like_protease_GHDDI_ligprep

>  <b_m_subgroup_collapsed>  (429) 
0

$$$$
13945
     RDKit          2D

 43 45  0  0  1  0  0  0  0  0999 V2000
   -8.4447    0.1245    0.0000 C   0  0  0  0  0  0  0  0  0  0  0  0
   -7.5384   -1.0708    0.0000 C   0  0  0  0  0  0  0  0  0  0  0  0
   -6.0501   -0.8836    0.0000 O   0  0  0  0  0  0  0  0  0  0  0  0
   -5.1439   -2.0789    0.0000 C   0  0  0  0  0  0  0  0  0  0  0  0
   -5.7259   -3.4613    0.0000 O   0  0  0  0  0  0  0  0  0  0  0  0
   -3.6556   -1.8917    0.0000 C   0  0  0  0  0  0  0  0  0  0  0  0
   -2.7494   -3.0870    0.0000 C   0  0  0  0  0  0  0  0  0  0  0  0
   -1.2611   -2.8998    0.0000 C   0  0  0  0  0  0  0  0  0  0  0  0
   -0.3549   -4.0951    0.0000 C   0  0  0  0  0  0  0  0  0  0  0  0
    1.1334   -3.9079    0.0000 C   0  0  0  0  0  0  0  0  0  0  0  0
    2.0397   -5.1032    0.0000 C   0  0  0  0  0  0  0  0  0  0  0  0
    3.5279   -4.9160    0.0000 C   0  0  0  0  0  0  0  0  0  0  0  0
    4.1100   -3.5335    0.0000 C   0  0  0  0  0  0  0  0  0  0  0  0
    3.2037   -2.3382    0.0000 C   0  0  0  0  0  0  0  0  0  0  0  0
    1.7154   -2.5254    0.0000 C   0  0  0  0  0  0  0  0  0  0  0  0
   -0.6791   -1.5173    0.0000 N   0  0  0  0  0  0  0  0  0  0  0  0
   -1.5853   -0.3220    0.0000 C   0  0  0  0  0  0  0  0  0  0  0  0
   -3.0736   -0.5092    0.0000 O   0  0  0  0  0  0  0  0  0  0  0  0
   -1.0033    1.0605    0.0000 C   0  0  0  0  0  0  0  0  0  0  0  0
    0.4850    1.2477    0.0000 C   0  0  0  0  0  0  0  0  0  0  0  0
    1.0670    2.6301    0.0000 C   0  0  0  0  0  0  0  0  0  0  0  0
    0.1608    3.8254    0.0000 O   0  0  0  0  0  0  0  0  0  0  0  0
    2.5553    2.8173    0.0000 C   0  0  0  0  0  0  0  0  0  0  0  0
    3.4615    1.6220    0.0000 N   0  0  0  0  0  0  0  0  0  0  0  0
    4.9498    1.8092    0.0000 C   0  0  0  0  0  0  0  0  0  0  0  0
    5.5318    3.1917    0.0000 O   0  0  0  0  0  0  0  0  0  0  0  0
    5.8560    0.6139    0.0000 C   0  0  0  0  0  0  0  0  0  0  0  0
    7.3557    0.6445    0.0000 C   0  0  0  0  0  0  0  0  0  0  0  0
    7.8483   -0.7723    0.0000 C   0  0  0  0  0  0  0  0  0  0  0  0
    9.2840   -1.2066    0.0000 C   0  0  0  0  0  0  0  0  0  0  0  0
    6.6530   -1.6786    0.0000 O   0  0  0  0  0  0  0  0  0  0  0  0
    5.4217   -0.8218    0.0000 N   0  0  0  0  0  0  0  0  0  0  0  0
    3.1373    4.1998    0.0000 C   0  0  0  0  0  0  0  0  0  0  0  0
    4.6256    4.3870    0.0000 C   0  0  0  0  0  0  0  0  0  0  0  0
    2.2311    5.3951    0.0000 C   0  0  0  0  0  0  0  0  0  0  0  0
   -1.9095    2.2558    0.0000 C   0  0  0  0  0  0  0  0  0  0  0  0
   -3.3978    2.0686    0.0000 C   0  0  0  0  0  0  0  0  0  0  0  0
   -3.9798    0.6861    0.0000 C   0  0  0  0  0  0  0  0  0  0  0  0
   -5.4681    0.4989    0.0000 C   0  0  0  0  0  0  0  0  0  0  0  0
   -6.3744    1.6942    0.0000 C   0  0  0  0  0  0  0  0  0  0  0  0
   -7.8626    1.5070    0.0000 F   0  0  0  0  0  0  0  0  0  0  0  0
   -5.7923    3.0767    0.0000 C   0  0  0  0  0  0  0  0  0  0  0  0
   -4.3041    3.2639    0.0000 C   0  0  0  0  0  0  0  0  0  0  0  0
  1  2  1  0
  2  3  1  0
  3  4  1  0
  4  5  2  0
  4  6  1  0
  6  7  2  0
  7  8  1  0
  8  9  1  0
  8 16  1  0
  9 10  1  0
 10 11  2  0
 10 15  1  0
 11 12  1  0
 12 13  2  0
 13 14  1  0
 14 15  2  0
 16 17  1  0
 17 18  2  0
 17 19  1  0
 19 20  1  0
 19 36  1  0
 20 21  1  0
 21 22  2  0
 21 23  1  0
 23 24  1  0
 23 33  1  0
 24 25  1  0
 25 26  2  0
 25 27  1  0
 27 28  1  0
 27 32  2  0
 28 29  2  0
 29 30  1  0
 29 31  1  0
 31 32  1  0
 33 34  1  0
 33 35  1  0
 36 37  1  0
 37 38  2  0
 37 43  1  0
 38 39  1  0
 39 40  2  0
 40 41  1  0
 40 42  1  0
 42 43  2  0
M  END
>  <s_m_entry_id>  (430) 
1002

>  <s_m_entry_name>  (430) 
3C-like_protease_GHDDI_ligprep.621

>  <s_m_Source_Path>  (430) 
/home/jgilaber/drug_learning/drug_learning/datasets/SAR1/GHDDI

>  <s_m_Source_File>  (430) 
3C-like_protease_GHDDI_ligprep.sdf

>  <i_m_Source_File_Index>  (430) 
621

>  <s_m_subgroup_title>  (430) 
3C-like_protease_GHDDI_ligprep

>  <s_m_subgroupid>  (430) 
3C-like_protease_GHDDI_ligprep

>  <b_m_subgroup_collapsed>  (430) 
0

$$$$
13948
     RDKit          2D

 28 30  0  0  1  0  0  0  0  0999 V2000
    3.3315   -4.8764    0.0000 C   0  0  0  0  0  0  0  0  0  0  0  0
    2.0267   -4.1364    0.0000 O   0  0  0  0  0  0  0  0  0  0  0  0
    2.0152   -2.6364    0.0000 C   0  0  0  0  0  0  0  0  0  0  0  0
    3.3085   -1.8765    0.0000 O   0  0  0  0  0  0  0  0  0  0  0  0
    0.7105   -1.8964    0.0000 C   0  0  0  0  0  0  0  0  0  0  0  0
   -0.5828   -2.6563    0.0000 C   0  0  0  0  0  0  0  0  0  0  0  0
   -0.5713   -4.1563    0.0000 S   0  0  0  0  0  0  0  0  0  0  0  0
   -1.8645   -4.9162    0.0000 C   0  0  0  0  0  0  0  0  0  0  0  0
   -1.8875   -1.9163    0.0000 C   0  0  0  0  0  0  0  0  0  0  0  0
   -1.8990   -0.4164    0.0000 C   0  0  0  0  0  0  0  0  0  0  0  0
   -0.6058    0.3436    0.0000 C   0  0  0  0  0  0  0  0  0  0  0  0
    0.6990   -0.3964    0.0000 C   0  0  0  0  0  0  0  0  0  0  0  0
    1.9922    0.3635    0.0000 C   0  0  0  0  0  0  0  0  0  0  0  0
    3.2970   -0.3765    0.0000 C   0  0  0  0  0  0  0  0  0  0  0  0
    4.5902    0.3834    0.0000 C   0  0  0  0  0  0  0  0  0  0  0  0
    4.5787    1.8834    0.0000 C   0  0  0  0  0  0  0  0  0  0  0  0
    3.2740    2.6234    0.0000 C   0  0  0  0  0  0  0  0  0  0  0  0
    1.9807    1.8634    0.0000 C   0  0  0  0  0  0  0  0  0  0  0  0
    3.2625    4.1233    0.0000 N   0  0  0  0  0  0  0  0  0  0  0  0
    1.9577    4.8634    0.0000 O   0  0  0  0  0  0  0  0  0  0  0  0
    4.5557    4.8833    0.0000 O   0  0  0  0  0  0  0  0  0  0  0  0
   -3.2038    0.3237    0.0000 C   0  0  0  0  0  0  0  0  0  0  0  0
   -3.2153    1.8236    0.0000 C   0  0  0  0  0  0  0  0  0  0  0  0
   -4.5200    2.5637    0.0000 C   0  0  0  0  0  0  0  0  0  0  0  0
   -5.8133    1.8037    0.0000 C   0  0  0  0  0  0  0  0  0  0  0  0
   -7.1180    2.5437    0.0000 F   0  0  0  0  0  0  0  0  0  0  0  0
   -5.8018    0.3038    0.0000 C   0  0  0  0  0  0  0  0  0  0  0  0
   -4.4970   -0.4363    0.0000 C   0  0  0  0  0  0  0  0  0  0  0  0
  1  2  1  0
  2  3  1  0
  3  4  2  0
  3  5  1  0
  5  6  2  0
  5 12  1  0
  6  7  1  0
  6  9  1  0
  7  8  1  0
  9 10  2  0
 10 11  1  0
 10 22  1  0
 11 12  2  0
 12 13  1  0
 13 14  2  0
 13 18  1  0
 14 15  1  0
 15 16  2  0
 16 17  1  0
 17 18  2  0
 17 19  1  0
 19 20  2  0
 19 21  1  0
 22 23  2  0
 22 28  1  0
 23 24  1  0
 24 25  2  0
 25 26  1  0
 25 27  1  0
 27 28  2  0
M  CHG  2  19   1  21  -1
M  END
>  <s_m_entry_id>  (431) 
1005

>  <s_m_entry_name>  (431) 
3C-like_protease_GHDDI_ligprep.624

>  <s_m_Source_Path>  (431) 
/home/jgilaber/drug_learning/drug_learning/datasets/SAR1/GHDDI

>  <s_m_Source_File>  (431) 
3C-like_protease_GHDDI_ligprep.sdf

>  <i_m_Source_File_Index>  (431) 
624

>  <s_m_subgroup_title>  (431) 
3C-like_protease_GHDDI_ligprep

>  <s_m_subgroupid>  (431) 
3C-like_protease_GHDDI_ligprep

>  <b_m_subgroup_collapsed>  (431) 
0

$$$$
13949
     RDKit          2D

 52 52  0  0  1  0  0  0  0  0999 V2000
   -0.8881   -1.6254    0.0000 C   0  0  0  0  0  0  0  0  0  0  0  0
   -1.3540   -0.1996    0.0000 C   0  0  0  0  0  0  0  0  0  0  0  0
   -2.8217    0.1099    0.0000 C   0  0  0  0  0  0  0  0  0  0  0  0
   -0.3521    0.9168    0.0000 C   0  0  0  0  0  0  0  0  0  0  0  0
   -0.8179    2.3426    0.0000 C   0  0  0  0  0  0  0  0  0  0  0  0
    0.1840    3.4589    0.0000 N   0  0  0  0  0  0  0  0  0  0  0  0
    1.6517    3.1494    0.0000 C   0  0  0  0  0  0  0  0  0  0  0  0
    2.1176    1.7236    0.0000 O   0  0  0  0  0  0  0  0  0  0  0  0
    2.6536    4.2658    0.0000 C   0  0  0  0  0  0  0  0  0  0  0  0
    4.1213    3.9563    0.0000 N   0  0  0  0  0  0  0  0  0  0  0  0
    4.5872    2.5304    0.0000 C   0  0  0  0  0  0  0  0  0  0  0  0
    3.5853    1.4141    0.0000 O   0  0  0  0  0  0  0  0  0  0  0  0
    6.0549    2.2209    0.0000 C   0  0  0  0  0  0  0  0  0  0  0  0
    7.0568    3.3373    0.0000 C   0  0  0  0  0  0  0  0  0  0  0  0
    6.5207    0.7951    0.0000 N   0  0  0  0  0  0  0  0  0  0  0  0
    5.5188   -0.3212    0.0000 C   0  0  0  0  0  0  0  0  0  0  0  0
    4.0511   -0.0117    0.0000 O   0  0  0  0  0  0  0  0  0  0  0  0
    5.9846   -1.7471    0.0000 C   0  0  0  0  0  0  0  0  0  0  0  0
    7.4524   -2.0566    0.0000 C   0  0  0  0  0  0  0  0  0  0  0  0
    8.4543   -0.9403    0.0000 O   0  0  0  0  0  0  0  0  0  0  0  0
    4.9827   -2.8634    0.0000 N   0  0  0  0  0  0  0  0  0  0  0  0
    3.5150   -2.5539    0.0000 C   0  0  0  0  0  0  0  0  0  0  0  0
    3.0492   -1.1281    0.0000 O   0  0  0  0  0  0  0  0  0  0  0  0
    2.5131   -3.6702    0.0000 C   0  0  0  0  0  0  0  0  0  0  0  0
    1.0454   -3.3607    0.0000 N   0  0  0  0  0  0  0  0  0  0  0  0
    0.0435   -4.4771    0.0000 C   0  0  0  0  0  0  0  0  0  0  0  0
    0.5093   -5.9029    0.0000 O   0  0  0  0  0  0  0  0  0  0  0  0
   -1.4242   -4.1676    0.0000 O   0  0  0  0  0  0  0  0  0  0  0  0
   -1.8900   -2.7417    0.0000 C   0  0  0  0  0  0  0  0  0  0  0  0
   -3.3578   -2.4322    0.0000 C   0  0  0  0  0  0  0  0  0  0  0  0
   -4.3597   -3.5486    0.0000 C   0  0  0  0  0  0  0  0  0  0  0  0
   -5.8274   -3.2391    0.0000 C   0  0  0  0  0  0  0  0  0  0  0  0
   -6.2932   -1.8132    0.0000 C   0  0  0  0  0  0  0  0  0  0  0  0
   -5.2913   -0.6969    0.0000 C   0  0  0  0  0  0  0  0  0  0  0  0
   -3.8236   -1.0064    0.0000 C   0  0  0  0  0  0  0  0  0  0  0  0
    2.9789   -5.0961    0.0000 C   0  0  0  0  0  0  0  0  0  0  0  0
    4.4467   -5.4056    0.0000 C   0  0  0  0  0  0  0  0  0  0  0  0
    1.9770   -6.2124    0.0000 O   0  0  0  0  0  0  0  0  0  0  0  0
    2.1878    5.6916    0.0000 C   0  0  0  0  0  0  0  0  0  0  0  0
    0.7201    6.0011    0.0000 C   0  0  0  0  0  0  0  0  0  0  0  0
    3.1897    6.8079    0.0000 C   0  0  0  0  0  0  0  0  0  0  0  0
   -2.2856    2.6521    0.0000 C   0  0  0  0  0  0  0  0  0  0  0  0
   -2.7514    4.0779    0.0000 O   0  0  0  0  0  0  0  0  0  0  0  0
   -3.2875    1.5358    0.0000 N   0  0  0  0  0  0  0  0  0  0  0  0
   -4.7552    1.8453    0.0000 C   0  0  0  0  0  0  0  0  0  0  0  0
   -5.7571    0.7289    0.0000 C   0  0  0  0  0  0  0  0  0  0  0  0
   -7.2249    1.0384    0.0000 C   0  0  0  0  0  0  0  0  0  0  0  0
   -8.2268   -0.0779    0.0000 C   0  0  0  0  0  0  0  0  0  0  0  0
   -7.7609   -1.5037    0.0000 O   0  0  0  0  0  0  0  0  0  0  0  0
   -9.6945    0.2316    0.0000 N   0  0  0  0  0  0  0  0  0  0  0  0
   -5.2211    3.2711    0.0000 C   0  0  0  0  0  0  0  0  0  0  0  0
   -5.6869    4.6969    0.0000 N   0  0  0  0  0  0  0  0  0  0  0  0
  1  2  1  0
  2  3  1  0
  2  4  1  0
  4  5  1  0
  5  6  1  0
  5 42  1  0
  6  7  1  0
  7  8  2  0
  7  9  1  0
  9 10  1  0
  9 39  1  0
 10 11  1  0
 11 12  2  0
 11 13  1  0
 13 14  1  0
 13 15  1  0
 15 16  1  0
 16 17  2  0
 16 18  1  0
 18 19  1  0
 18 21  1  0
 19 20  1  0
 21 22  1  0
 22 23  2  0
 22 24  1  0
 24 25  1  0
 24 36  1  0
 25 26  1  0
 26 27  2  0
 26 28  1  0
 28 29  1  0
 29 30  1  0
 30 31  2  0
 30 35  1  0
 31 32  1  0
 32 33  2  0
 33 34  1  0
 34 35  2  0
 36 37  1  0
 36 38  1  0
 39 40  1  0
 39 41  1  0
 42 43  2  0
 42 44  1  0
 44 45  1  0
 45 46  1  0
 45 51  1  0
 46 47  1  0
 47 48  1  0
 48 49  2  0
 48 50  1  0
 51 52  3  0
M  END
>  <s_m_entry_id>  (432) 
1007

>  <s_m_entry_name>  (432) 
3C-like_protease_GHDDI_ligprep.626

>  <s_m_Source_Path>  (432) 
/home/jgilaber/drug_learning/drug_learning/datasets/SAR1/GHDDI

>  <s_m_Source_File>  (432) 
3C-like_protease_GHDDI_ligprep.sdf

>  <i_m_Source_File_Index>  (432) 
626

>  <s_m_subgroup_title>  (432) 
3C-like_protease_GHDDI_ligprep

>  <s_m_subgroupid>  (432) 
3C-like_protease_GHDDI_ligprep

>  <b_m_subgroup_collapsed>  (432) 
0

$$$$
13950
     RDKit          2D

 34 33  0  0  1  0  0  0  0  0999 V2000
   -0.9687    4.6729    0.0000 C   0  0  0  0  0  0  0  0  0  0  0  0
   -1.2648    3.2024    0.0000 C   0  0  0  0  0  0  0  0  0  0  0  0
   -0.1394    2.2107    0.0000 N   0  0  0  0  0  0  0  0  0  0  0  0
   -0.4355    0.7403    0.0000 C   0  0  0  0  0  0  0  0  0  0  0  0
   -1.8571    0.2615    0.0000 O   0  0  0  0  0  0  0  0  0  0  0  0
    0.6899   -0.2514    0.0000 C   0  0  0  0  0  0  0  0  0  0  0  0
    0.3938   -1.7219    0.0000 C   0  0  0  0  0  0  0  0  0  0  0  0
    1.5192   -2.7136    0.0000 C   0  0  0  0  0  0  0  0  0  0  0  0
    2.9407   -2.2348    0.0000 O   0  0  0  0  0  0  0  0  0  0  0  0
    4.0661   -3.2265    0.0000 C   0  0  0  0  0  0  0  0  0  0  0  0
    5.0578   -2.1011    0.0000 C   0  0  0  0  0  0  0  0  0  0  0  0
    3.0744   -4.3519    0.0000 C   0  0  0  0  0  0  0  0  0  0  0  0
    5.1915   -4.2182    0.0000 C   0  0  0  0  0  0  0  0  0  0  0  0
    1.2231   -4.1841    0.0000 C   0  0  0  0  0  0  0  0  0  0  0  0
   -0.1985   -4.6629    0.0000 O   0  0  0  0  0  0  0  0  0  0  0  0
    2.3485   -5.1758    0.0000 O   0  0  0  0  0  0  0  0  0  0  0  0
    2.1114    0.2274    0.0000 N   0  0  0  0  0  0  0  0  0  0  0  0
    2.4075    1.6978    0.0000 C   0  0  0  0  0  0  0  0  0  0  0  0
    1.2821    2.6895    0.0000 O   0  0  0  0  0  0  0  0  0  0  0  0
    3.8291    2.1766    0.0000 O   0  0  0  0  0  0  0  0  0  0  0  0
    4.1252    3.6471    0.0000 C   0  0  0  0  0  0  0  0  0  0  0  0
    5.5957    3.3510    0.0000 C   0  0  0  0  0  0  0  0  0  0  0  0
    2.6547    3.9432    0.0000 C   0  0  0  0  0  0  0  0  0  0  0  0
    4.4213    5.1176    0.0000 C   0  0  0  0  0  0  0  0  0  0  0  0
   -2.6864    2.7236    0.0000 C   0  0  0  0  0  0  0  0  0  0  0  0
   -3.8118    3.7153    0.0000 O   0  0  0  0  0  0  0  0  0  0  0  0
   -2.9825    1.2531    0.0000 N   0  0  0  0  0  0  0  0  0  0  0  0
   -4.4040    0.7743    0.0000 C   0  0  0  0  0  0  0  0  0  0  0  0
   -4.7001   -0.6961    0.0000 C   0  0  0  0  0  0  0  0  0  0  0  0
   -3.5747   -1.6878    0.0000 O   0  0  0  0  0  0  0  0  0  0  0  0
   -6.1217   -1.1749    0.0000 C   0  0  0  0  0  0  0  0  0  0  0  0
   -7.5432   -1.6537    0.0000 F   0  0  0  0  0  0  0  0  0  0  0  0
   -5.6429   -2.5965    0.0000 F   0  0  0  0  0  0  0  0  0  0  0  0
   -6.6005    0.2466    0.0000 F   0  0  0  0  0  0  0  0  0  0  0  0
  1  2  1  0
  2  3  1  0
  2 25  1  0
  3  4  1  0
  4  5  2  0
  4  6  1  0
  6  7  1  0
  6 17  1  0
  7  8  1  0
  8  9  1  0
  8 14  1  0
  9 10  1  0
 10 11  1  0
 10 12  1  0
 10 13  1  0
 14 15  2  0
 14 16  1  0
 17 18  1  0
 18 19  2  0
 18 20  1  0
 20 21  1  0
 21 22  1  0
 21 23  1  0
 21 24  1  0
 25 26  2  0
 25 27  1  0
 27 28  1  0
 28 29  1  0
 29 30  2  0
 29 31  1  0
 31 32  1  0
 31 33  1  0
 31 34  1  0
M  CHG  1  16  -1
M  END
>  <s_m_entry_id>  (433) 
1023

>  <s_m_entry_name>  (433) 
3C-like_protease_GHDDI_ligprep.642

>  <s_m_Source_Path>  (433) 
/home/jgilaber/drug_learning/drug_learning/datasets/SAR1/GHDDI

>  <s_m_Source_File>  (433) 
3C-like_protease_GHDDI_ligprep.sdf

>  <i_m_Source_File_Index>  (433) 
642

>  <s_m_subgroup_title>  (433) 
3C-like_protease_GHDDI_ligprep

>  <s_m_subgroupid>  (433) 
3C-like_protease_GHDDI_ligprep

>  <b_m_subgroup_collapsed>  (433) 
0

$$$$
13951
     RDKit          2D

 24 23  0  0  1  0  0  0  0  0999 V2000
   -3.2582    5.0827    0.0000 C   0  0  0  0  0  0  0  0  0  0  0  0
   -2.9413    3.6165    0.0000 C   0  0  0  0  0  0  0  0  0  0  0  0
   -4.0526    2.6090    0.0000 C   0  0  0  0  0  0  0  0  0  0  0  0
   -1.5132    3.1579    0.0000 C   0  0  0  0  0  0  0  0  0  0  0  0
   -1.1963    1.6917    0.0000 C   0  0  0  0  0  0  0  0  0  0  0  0
   -2.3076    0.6842    0.0000 N   0  0  0  0  0  0  0  0  0  0  0  0
   -1.9907   -0.7819    0.0000 C   0  0  0  0  0  0  0  0  0  0  0  0
   -0.5625   -1.2406    0.0000 O   0  0  0  0  0  0  0  0  0  0  0  0
   -3.1020   -1.7894    0.0000 O   0  0  0  0  0  0  0  0  0  0  0  0
   -2.7851   -3.2556    0.0000 C   0  0  0  0  0  0  0  0  0  0  0  0
   -4.2512   -3.5725    0.0000 C   0  0  0  0  0  0  0  0  0  0  0  0
   -1.3189   -2.9387    0.0000 C   0  0  0  0  0  0  0  0  0  0  0  0
   -2.4682   -4.7217    0.0000 C   0  0  0  0  0  0  0  0  0  0  0  0
    0.2319    1.2331    0.0000 C   0  0  0  0  0  0  0  0  0  0  0  0
    1.3432    2.2406    0.0000 O   0  0  0  0  0  0  0  0  0  0  0  0
    0.5488   -0.2331    0.0000 N   0  0  0  0  0  0  0  0  0  0  0  0
    1.9769   -0.6917    0.0000 C   0  0  0  0  0  0  0  0  0  0  0  0
    2.2938   -2.1579    0.0000 C   0  0  0  0  0  0  0  0  0  0  0  0
    3.0882    0.3158    0.0000 C   0  0  0  0  0  0  0  0  0  0  0  0
    2.7713    1.7819    0.0000 O   0  0  0  0  0  0  0  0  0  0  0  0
    4.5164   -0.1429    0.0000 C   0  0  0  0  0  0  0  0  0  0  0  0
    5.9445   -0.6015    0.0000 F   0  0  0  0  0  0  0  0  0  0  0  0
    4.9750    1.2853    0.0000 F   0  0  0  0  0  0  0  0  0  0  0  0
    4.0577   -1.5710    0.0000 F   0  0  0  0  0  0  0  0  0  0  0  0
  1  2  1  0
  2  3  1  0
  2  4  1  0
  4  5  1  0
  5  6  1  0
  5 14  1  0
  6  7  1  0
  7  8  2  0
  7  9  1  0
  9 10  1  0
 10 11  1  0
 10 12  1  0
 10 13  1  0
 14 15  2  0
 14 16  1  0
 16 17  1  0
 17 18  1  0
 17 19  1  0
 19 20  2  0
 19 21  1  0
 21 22  1  0
 21 23  1  0
 21 24  1  0
M  END
>  <s_m_entry_id>  (434) 
1025

>  <s_m_entry_name>  (434) 
3C-like_protease_GHDDI_ligprep.644

>  <s_m_Source_Path>  (434) 
/home/jgilaber/drug_learning/drug_learning/datasets/SAR1/GHDDI

>  <s_m_Source_File>  (434) 
3C-like_protease_GHDDI_ligprep.sdf

>  <i_m_Source_File_Index>  (434) 
644

>  <s_m_subgroup_title>  (434) 
3C-like_protease_GHDDI_ligprep

>  <s_m_subgroupid>  (434) 
3C-like_protease_GHDDI_ligprep

>  <b_m_subgroup_collapsed>  (434) 
0

$$$$
13952
     RDKit          2D

 31 35  0  0  1  0  0  0  0  0999 V2000
    2.9752    1.5039    0.0000 O   0  0  0  0  0  0  0  0  0  0  0  0
    1.5988    0.9077    0.0000 C   0  0  0  0  0  0  0  0  0  0  0  0
    1.2720   -0.5563    0.0000 N   0  0  0  0  0  0  0  0  0  0  0  0
    2.2643   -1.6811    0.0000 C   0  0  0  0  0  0  0  0  0  0  0  0
    3.7346   -1.3842    0.0000 C   0  0  0  0  0  0  0  0  0  0  0  0
    4.7269   -2.5090    0.0000 C   0  0  0  0  0  0  0  0  0  0  0  0
    6.1973   -2.2121    0.0000 C   0  0  0  0  0  0  0  0  0  0  0  0
    6.6753   -0.7903    0.0000 C   0  0  0  0  0  0  0  0  0  0  0  0
    8.1456   -0.4933    0.0000 C   0  0  0  0  0  0  0  0  0  0  0  0
    8.6236    0.9285    0.0000 C   0  0  0  0  0  0  0  0  0  0  0  0
    7.6313    2.0533    0.0000 C   0  0  0  0  0  0  0  0  0  0  0  0
    6.1609    1.7564    0.0000 C   0  0  0  0  0  0  0  0  0  0  0  0
    5.6829    0.3346    0.0000 C   0  0  0  0  0  0  0  0  0  0  0  0
    4.2126    0.0376    0.0000 C   0  0  0  0  0  0  0  0  0  0  0  0
   -0.2213   -0.6979    0.0000 C   0  0  0  0  0  0  0  0  0  0  0  0
   -1.1153   -1.9024    0.0000 C   0  0  0  0  0  0  0  0  0  0  0  0
   -2.6054   -1.7304    0.0000 C   0  0  0  0  0  0  0  0  0  0  0  0
   -3.2015   -0.3540    0.0000 C   0  0  0  0  0  0  0  0  0  0  0  0
   -2.3076    0.8505    0.0000 C   0  0  0  0  0  0  0  0  0  0  0  0
   -0.8174    0.6786    0.0000 C   0  0  0  0  0  0  0  0  0  0  0  0
    0.3074    1.6709    0.0000 C   0  0  0  0  0  0  0  0  0  0  0  0
    0.1658    3.1642    0.0000 O   0  0  0  0  0  0  0  0  0  0  0  0
   -4.6916   -0.1820    0.0000 S   0  0  0  0  0  0  0  0  0  0  0  0
   -4.5197    1.3081    0.0000 O   0  0  0  0  0  0  0  0  0  0  0  0
   -4.8636   -1.6722    0.0000 O   0  0  0  0  0  0  0  0  0  0  0  0
   -6.1817   -0.0101    0.0000 N   0  0  0  0  0  0  0  0  0  0  0  0
   -6.7779    1.3663    0.0000 C   0  0  0  0  0  0  0  0  0  0  0  0
   -8.2680    1.5383    0.0000 C   0  0  0  0  0  0  0  0  0  0  0  0
   -9.1620    0.3338    0.0000 O   0  0  0  0  0  0  0  0  0  0  0  0
   -8.5658   -1.0427    0.0000 C   0  0  0  0  0  0  0  0  0  0  0  0
   -7.0757   -1.2146    0.0000 C   0  0  0  0  0  0  0  0  0  0  0  0
  1  2  2  0
  2  3  1  0
  2 21  1  0
  3  4  1  0
  3 15  1  0
  4  5  1  0
  5  6  2  0
  5 14  1  0
  6  7  1  0
  7  8  2  0
  8  9  1  0
  8 13  1  0
  9 10  2  0
 10 11  1  0
 11 12  2  0
 12 13  1  0
 13 14  2  0
 15 16  2  0
 15 20  1  0
 16 17  1  0
 17 18  2  0
 18 19  1  0
 18 23  1  0
 19 20  2  0
 20 21  1  0
 21 22  2  0
 23 24  2  0
 23 25  2  0
 23 26  1  0
 26 27  1  0
 26 31  1  0
 27 28  1  0
 28 29  1  0
 29 30  1  0
 30 31  1  0
M  END
>  <s_m_entry_id>  (435) 
1026

>  <s_m_entry_name>  (435) 
3C-like_protease_GHDDI_ligprep.645

>  <s_m_Source_Path>  (435) 
/home/jgilaber/drug_learning/drug_learning/datasets/SAR1/GHDDI

>  <s_m_Source_File>  (435) 
3C-like_protease_GHDDI_ligprep.sdf

>  <i_m_Source_File_Index>  (435) 
645

>  <s_m_subgroup_title>  (435) 
3C-like_protease_GHDDI_ligprep

>  <s_m_subgroupid>  (435) 
3C-like_protease_GHDDI_ligprep

>  <b_m_subgroup_collapsed>  (435) 
0

$$$$
13955
     RDKit          2D

 29 30  0  0  1  0  0  0  0  0999 V2000
   -6.6637   -2.9738    0.0000 C   0  0  0  0  0  0  0  0  0  0  0  0
   -5.2026   -2.6343    0.0000 C   0  0  0  0  0  0  0  0  0  0  0  0
   -4.7660   -1.1993    0.0000 C   0  0  0  0  0  0  0  0  0  0  0  0
   -3.3050   -0.8598    0.0000 C   0  0  0  0  0  0  0  0  0  0  0  0
   -2.8684    0.5753    0.0000 C   0  0  0  0  0  0  0  0  0  0  0  0
   -3.8929    1.6709    0.0000 C   0  0  0  0  0  0  0  0  0  0  0  0
   -5.3540    1.3314    0.0000 O   0  0  0  0  0  0  0  0  0  0  0  0
   -3.4563    3.1059    0.0000 C   0  0  0  0  0  0  0  0  0  0  0  0
   -4.4808    4.2015    0.0000 O   0  0  0  0  0  0  0  0  0  0  0  0
   -1.9952    3.4454    0.0000 C   0  0  0  0  0  0  0  0  0  0  0  0
   -0.9707    2.3498    0.0000 C   0  0  0  0  0  0  0  0  0  0  0  0
    0.4904    2.6892    0.0000 C   0  0  0  0  0  0  0  0  0  0  0  0
    1.5149    1.5936    0.0000 C   0  0  0  0  0  0  0  0  0  0  0  0
    2.9760    1.9331    0.0000 C   0  0  0  0  0  0  0  0  0  0  0  0
    4.0005    0.8374    0.0000 C   0  0  0  0  0  0  0  0  0  0  0  0
    3.5639   -0.5976    0.0000 C   0  0  0  0  0  0  0  0  0  0  0  0
    4.5884   -1.6932    0.0000 C   0  0  0  0  0  0  0  0  0  0  0  0
    6.0495   -1.3538    0.0000 C   0  0  0  0  0  0  0  0  0  0  0  0
    7.0740   -2.4494    0.0000 O   0  0  0  0  0  0  0  0  0  0  0  0
    6.4861    0.0813    0.0000 C   0  0  0  0  0  0  0  0  0  0  0  0
    5.4616    1.1769    0.0000 C   0  0  0  0  0  0  0  0  0  0  0  0
    5.8981    2.6120    0.0000 O   0  0  0  0  0  0  0  0  0  0  0  0
   -1.4073    0.9147    0.0000 C   0  0  0  0  0  0  0  0  0  0  0  0
   -0.3828   -0.1809    0.0000 C   0  0  0  0  0  0  0  0  0  0  0  0
   -0.8194   -1.6160    0.0000 C   0  0  0  0  0  0  0  0  0  0  0  0
    0.2052   -2.7116    0.0000 C   0  0  0  0  0  0  0  0  0  0  0  0
   -0.2314   -4.1466    0.0000 C   0  0  0  0  0  0  0  0  0  0  0  0
    1.6662   -2.3721    0.0000 C   0  0  0  0  0  0  0  0  0  0  0  0
   -4.1781   -3.7299    0.0000 C   0  0  0  0  0  0  0  0  0  0  0  0
  1  2  1  0
  2  3  2  3
  2 29  1  0
  3  4  1  0
  4  5  1  0
  5  6  2  0
  5 23  1  0
  6  7  1  0
  6  8  1  0
  8  9  1  0
  8 10  2  0
 10 11  1  0
 11 12  1  0
 11 23  2  0
 12 13  1  0
 13 14  1  0
 14 15  1  0
 15 16  2  0
 15 21  1  0
 16 17  1  0
 17 18  2  0
 18 19  1  0
 18 20  1  0
 20 21  2  0
 21 22  1  0
 23 24  1  0
 24 25  1  0
 25 26  2  3
 26 27  1  0
 26 28  1  0
M  END
>  <s_m_entry_id>  (436) 
1029

>  <s_m_entry_name>  (436) 
3C-like_protease_GHDDI_ligprep.648

>  <s_m_Source_Path>  (436) 
/home/jgilaber/drug_learning/drug_learning/datasets/SAR1/GHDDI

>  <s_m_Source_File>  (436) 
3C-like_protease_GHDDI_ligprep.sdf

>  <i_m_Source_File_Index>  (436) 
648

>  <s_m_subgroup_title>  (436) 
3C-like_protease_GHDDI_ligprep

>  <s_m_subgroupid>  (436) 
3C-like_protease_GHDDI_ligprep

>  <b_m_subgroup_collapsed>  (436) 
0

$$$$
13956
     RDKit          2D

 37 41  0  0  1  0  0  0  0  0999 V2000
   -9.6091   -2.1269    0.0000 O   0  0  0  0  0  0  0  0  0  0  0  0
   -8.1091   -2.1149    0.0000 C   0  0  0  0  0  0  0  0  0  0  0  0
   -7.3487   -3.4078    0.0000 O   0  0  0  0  0  0  0  0  0  0  0  0
   -7.3696   -0.8098    0.0000 C   0  0  0  0  0  0  0  0  0  0  0  0
   -8.1299    0.4831    0.0000 C   0  0  0  0  0  0  0  0  0  0  0  0
   -7.3904    1.7881    0.0000 C   0  0  0  0  0  0  0  0  0  0  0  0
   -5.8904    1.8002    0.0000 C   0  0  0  0  0  0  0  0  0  0  0  0
   -5.1300    0.5072    0.0000 C   0  0  0  0  0  0  0  0  0  0  0  0
   -5.8696   -0.7978    0.0000 C   0  0  0  0  0  0  0  0  0  0  0  0
   -3.6301    0.5192    0.0000 N   0  0  0  0  0  0  0  0  0  0  0  0
   -2.7582    1.7398    0.0000 N   0  0  0  0  0  0  0  0  0  0  0  0
   -1.3279    1.2877    0.0000 C   0  0  0  0  0  0  0  0  0  0  0  0
   -1.3159   -0.2122    0.0000 C   0  0  0  0  0  0  0  0  0  0  0  0
   -0.0953   -1.0842    0.0000 C   0  0  0  0  0  0  0  0  0  0  0  0
    1.2700   -0.4631    0.0000 C   0  0  0  0  0  0  0  0  0  0  0  0
    2.5751   -1.2027    0.0000 O   0  0  0  0  0  0  0  0  0  0  0  0
    3.6817   -0.1900    0.0000 C   0  0  0  0  0  0  0  0  0  0  0  0
    3.0606    1.1753    0.0000 C   0  0  0  0  0  0  0  0  0  0  0  0
    1.5701    1.0066    0.0000 C   0  0  0  0  0  0  0  0  0  0  0  0
    5.1514   -0.4901    0.0000 C   0  0  0  0  0  0  0  0  0  0  0  0
    6.1461    0.6326    0.0000 C   0  0  0  0  0  0  0  0  0  0  0  0
    7.6158    0.3325    0.0000 C   0  0  0  0  0  0  0  0  0  0  0  0
    8.6105    1.4552    0.0000 Cl  0  0  0  0  0  0  0  0  0  0  0  0
    8.0907   -1.0903    0.0000 C   0  0  0  0  0  0  0  0  0  0  0  0
    7.0960   -2.2131    0.0000 C   0  0  0  0  0  0  0  0  0  0  0  0
    5.6263   -1.9130    0.0000 C   0  0  0  0  0  0  0  0  0  0  0  0
    4.6316   -3.0357    0.0000 C   0  0  0  0  0  0  0  0  0  0  0  0
    3.1619   -2.7356    0.0000 O   0  0  0  0  0  0  0  0  0  0  0  0
    5.1065   -4.4585    0.0000 O   0  0  0  0  0  0  0  0  0  0  0  0
   -2.7387   -0.6872    0.0000 C   0  0  0  0  0  0  0  0  0  0  0  0
   -3.1908   -2.1175    0.0000 O   0  0  0  0  0  0  0  0  0  0  0  0
   -0.1215    2.1791    0.0000 C   0  0  0  0  0  0  0  0  0  0  0  0
   -0.2903    3.6696    0.0000 C   0  0  0  0  0  0  0  0  0  0  0  0
    0.9162    4.5609    0.0000 C   0  0  0  0  0  0  0  0  0  0  0  0
    2.2913    3.9618    0.0000 C   0  0  0  0  0  0  0  0  0  0  0  0
    2.4601    2.4714    0.0000 C   0  0  0  0  0  0  0  0  0  0  0  0
    1.2537    1.5800    0.0000 C   0  0  0  0  0  0  0  0  0  0  0  0
  1  2  1  0
  2  3  2  0
  2  4  1  0
  4  5  2  0
  4  9  1  0
  5  6  1  0
  6  7  2  0
  7  8  1  0
  8  9  2  0
  8 10  1  0
 10 11  1  0
 10 30  1  0
 11 12  2  0
 12 13  1  0
 12 32  1  0
 13 14  2  0
 13 30  1  0
 14 15  1  0
 15 16  1  0
 15 19  2  0
 16 17  1  0
 17 18  2  0
 17 20  1  0
 18 19  1  0
 20 21  2  0
 20 26  1  0
 21 22  1  0
 22 23  1  0
 22 24  2  0
 24 25  1  0
 25 26  2  0
 26 27  1  0
 27 28  2  0
 27 29  1  0
 30 31  2  0
 32 33  2  0
 32 37  1  0
 33 34  1  0
 34 35  2  0
 35 36  1  0
 36 37  2  0
M  CHG  2   1  -1  29  -1
M  END
>  <s_m_entry_id>  (437) 
1030

>  <s_m_entry_name>  (437) 
3C-like_protease_GHDDI_ligprep.649

>  <s_m_Source_Path>  (437) 
/home/jgilaber/drug_learning/drug_learning/datasets/SAR1/GHDDI

>  <s_m_Source_File>  (437) 
3C-like_protease_GHDDI_ligprep.sdf

>  <i_m_Source_File_Index>  (437) 
649

>  <s_m_subgroup_title>  (437) 
3C-like_protease_GHDDI_ligprep

>  <s_m_subgroupid>  (437) 
3C-like_protease_GHDDI_ligprep

>  <b_m_subgroup_collapsed>  (437) 
0

$$$$
13957
     RDKit          2D

 29 30  0  0  1  0  0  0  0  0999 V2000
   -2.3783    5.1259    0.0000 C   0  0  0  0  0  0  0  0  0  0  0  0
   -1.7627    3.7581    0.0000 C   0  0  0  0  0  0  0  0  0  0  0  0
   -2.6395    2.5410    0.0000 C   0  0  0  0  0  0  0  0  0  0  0  0
   -0.2703    3.6073    0.0000 C   0  0  0  0  0  0  0  0  0  0  0  0
    0.3453    2.2395    0.0000 C   0  0  0  0  0  0  0  0  0  0  0  0
    1.8377    2.0887    0.0000 N   0  0  0  0  0  0  0  0  0  0  0  0
    2.4533    0.7208    0.0000 C   0  0  0  0  0  0  0  0  0  0  0  0
    1.5766   -0.4962    0.0000 O   0  0  0  0  0  0  0  0  0  0  0  0
    3.9457    0.5701    0.0000 O   0  0  0  0  0  0  0  0  0  0  0  0
    4.5614   -0.7978    0.0000 C   0  0  0  0  0  0  0  0  0  0  0  0
    6.0538   -0.9486    0.0000 C   0  0  0  0  0  0  0  0  0  0  0  0
    6.6694   -2.3164    0.0000 C   0  0  0  0  0  0  0  0  0  0  0  0
    8.1618   -2.4672    0.0000 C   0  0  0  0  0  0  0  0  0  0  0  0
    9.0386   -1.2501    0.0000 C   0  0  0  0  0  0  0  0  0  0  0  0
    8.4230    0.1177    0.0000 C   0  0  0  0  0  0  0  0  0  0  0  0
    6.9306    0.2685    0.0000 C   0  0  0  0  0  0  0  0  0  0  0  0
   -0.5315    1.0224    0.0000 C   0  0  0  0  0  0  0  0  0  0  0  0
    0.0842   -0.3455    0.0000 O   0  0  0  0  0  0  0  0  0  0  0  0
   -2.0239    1.1732    0.0000 N   0  0  0  0  0  0  0  0  0  0  0  0
   -2.9006   -0.0439    0.0000 C   0  0  0  0  0  0  0  0  0  0  0  0
   -4.3930    0.1069    0.0000 C   0  0  0  0  0  0  0  0  0  0  0  0
   -5.2698   -1.1102    0.0000 C   0  0  0  0  0  0  0  0  0  0  0  0
   -4.8005   -2.5349    0.0000 C   0  0  0  0  0  0  0  0  0  0  0  0
   -6.0105   -3.4215    0.0000 C   0  0  0  0  0  0  0  0  0  0  0  0
   -7.2276   -2.5447    0.0000 N   0  0  0  0  0  0  0  0  0  0  0  0
   -6.7698   -1.1162    0.0000 C   0  0  0  0  0  0  0  0  0  0  0  0
   -7.6564    0.0937    0.0000 O   0  0  0  0  0  0  0  0  0  0  0  0
   -2.2850   -1.4118    0.0000 C   0  0  0  0  0  0  0  0  0  0  0  0
   -3.1618   -2.6288    0.0000 O   0  0  0  0  0  0  0  0  0  0  0  0
  1  2  1  0
  2  3  1  0
  2  4  1  0
  4  5  1  0
  5  6  1  0
  5 17  1  0
  6  7  1  0
  7  8  2  0
  7  9  1  0
  9 10  1  0
 10 11  1  0
 11 12  2  0
 11 16  1  0
 12 13  1  0
 13 14  2  0
 14 15  1  0
 15 16  2  0
 17 18  2  0
 17 19  1  0
 19 20  1  0
 20 21  1  0
 20 28  1  0
 21 22  1  0
 22 23  1  0
 22 26  1  0
 23 24  1  0
 24 25  1  0
 25 26  1  0
 26 27  2  0
 28 29  2  0
M  END
>  <s_m_entry_id>  (438) 
1032

>  <s_m_entry_name>  (438) 
3C-like_protease_GHDDI_ligprep.651

>  <s_m_Source_Path>  (438) 
/home/jgilaber/drug_learning/drug_learning/datasets/SAR1/GHDDI

>  <s_m_Source_File>  (438) 
3C-like_protease_GHDDI_ligprep.sdf

>  <i_m_Source_File_Index>  (438) 
651

>  <s_m_subgroup_title>  (438) 
3C-like_protease_GHDDI_ligprep

>  <s_m_subgroupid>  (438) 
3C-like_protease_GHDDI_ligprep

>  <b_m_subgroup_collapsed>  (438) 
0

$$$$
13959
     RDKit          2D

 39 39  0  0  1  0  0  0  0  0999 V2000
    1.7542   -4.8241    0.0000 C   0  0  0  0  0  0  0  0  0  0  0  0
    1.0478   -3.5009    0.0000 C   0  0  0  0  0  0  0  0  0  0  0  0
    1.8406   -2.2275    0.0000 C   0  0  0  0  0  0  0  0  0  0  0  0
   -0.4514   -3.4510    0.0000 C   0  0  0  0  0  0  0  0  0  0  0  0
   -1.1578   -2.1278    0.0000 C   0  0  0  0  0  0  0  0  0  0  0  0
   -0.3650   -0.8544    0.0000 N   0  0  0  0  0  0  0  0  0  0  0  0
   -1.0714    0.4689    0.0000 C   0  0  0  0  0  0  0  0  0  0  0  0
   -2.5706    0.5187    0.0000 O   0  0  0  0  0  0  0  0  0  0  0  0
   -0.2787    1.7423    0.0000 C   0  0  0  0  0  0  0  0  0  0  0  0
    1.2205    1.6924    0.0000 N   0  0  0  0  0  0  0  0  0  0  0  0
    2.0133    2.9658    0.0000 C   0  0  0  0  0  0  0  0  0  0  0  0
    1.3069    4.2891    0.0000 O   0  0  0  0  0  0  0  0  0  0  0  0
    3.5125    2.9159    0.0000 C   0  0  0  0  0  0  0  0  0  0  0  0
    4.3052    4.1893    0.0000 C   0  0  0  0  0  0  0  0  0  0  0  0
    4.2189    1.5927    0.0000 N   0  0  0  0  0  0  0  0  0  0  0  0
    5.7180    1.5428    0.0000 C   0  0  0  0  0  0  0  0  0  0  0  0
    6.5108    2.8162    0.0000 O   0  0  0  0  0  0  0  0  0  0  0  0
    6.4244    0.2196    0.0000 C   0  0  0  0  0  0  0  0  0  0  0  0
    7.9236    0.1697    0.0000 C   0  0  0  0  0  0  0  0  0  0  0  0
    8.6300   -1.1535    0.0000 O   0  0  0  0  0  0  0  0  0  0  0  0
    5.6317   -1.0538    0.0000 N   0  0  0  0  0  0  0  0  0  0  0  0
    6.3381   -2.3771    0.0000 C   0  0  0  0  0  0  0  0  0  0  0  0
    7.8372   -2.4269    0.0000 O   0  0  0  0  0  0  0  0  0  0  0  0
    5.5453   -3.6504    0.0000 C   0  0  0  0  0  0  0  0  0  0  0  0
   -0.9851    3.0655    0.0000 C   0  0  0  0  0  0  0  0  0  0  0  0
   -0.1923    4.3389    0.0000 C   0  0  0  0  0  0  0  0  0  0  0  0
   -2.4842    3.1154    0.0000 C   0  0  0  0  0  0  0  0  0  0  0  0
   -2.6570   -2.0779    0.0000 C   0  0  0  0  0  0  0  0  0  0  0  0
   -3.4497   -3.3513    0.0000 O   0  0  0  0  0  0  0  0  0  0  0  0
   -3.3634   -0.7546    0.0000 N   0  0  0  0  0  0  0  0  0  0  0  0
   -4.8625   -0.7048    0.0000 C   0  0  0  0  0  0  0  0  0  0  0  0
   -5.5689    0.6185    0.0000 C   0  0  0  0  0  0  0  0  0  0  0  0
   -7.0681    0.6683    0.0000 C   0  0  0  0  0  0  0  0  0  0  0  0
   -7.9090    1.9105    0.0000 C   0  0  0  0  0  0  0  0  0  0  0  0
   -9.3502    1.4946    0.0000 C   0  0  0  0  0  0  0  0  0  0  0  0
   -9.4000   -0.0045    0.0000 C   0  0  0  0  0  0  0  0  0  0  0  0
   -7.9896   -0.5152    0.0000 S   0  0  0  0  0  0  0  0  0  0  0  0
   -5.6553   -1.9782    0.0000 C   0  0  0  0  0  0  0  0  0  0  0  0
   -4.9489   -3.3014    0.0000 O   0  0  0  0  0  0  0  0  0  0  0  0
  1  2  1  0
  2  3  1  0
  2  4  1  0
  4  5  1  0
  5  6  1  0
  5 28  1  0
  6  7  1  0
  7  8  2  0
  7  9  1  0
  9 10  1  0
  9 25  1  0
 10 11  1  0
 11 12  2  0
 11 13  1  0
 13 14  1  0
 13 15  1  0
 15 16  1  0
 16 17  2  0
 16 18  1  0
 18 19  1  0
 18 21  1  0
 19 20  1  0
 21 22  1  0
 22 23  2  0
 22 24  1  0
 25 26  1  0
 25 27  1  0
 28 29  2  0
 28 30  1  0
 30 31  1  0
 31 32  1  0
 31 38  1  0
 32 33  1  0
 33 34  2  0
 33 37  1  0
 34 35  1  0
 35 36  2  0
 36 37  1  0
 38 39  2  0
M  END
>  <s_m_entry_id>  (439) 
1035

>  <s_m_entry_name>  (439) 
3C-like_protease_GHDDI_ligprep.654

>  <s_m_Source_Path>  (439) 
/home/jgilaber/drug_learning/drug_learning/datasets/SAR1/GHDDI

>  <s_m_Source_File>  (439) 
3C-like_protease_GHDDI_ligprep.sdf

>  <i_m_Source_File_Index>  (439) 
654

>  <s_m_subgroup_title>  (439) 
3C-like_protease_GHDDI_ligprep

>  <s_m_subgroupid>  (439) 
3C-like_protease_GHDDI_ligprep

>  <b_m_subgroup_collapsed>  (439) 
0

$$$$
13960
     RDKit          2D

 36 35  0  0  1  0  0  0  0  0999 V2000
   -1.3725    5.3656    0.0000 C   0  0  0  0  0  0  0  0  0  0  0  0
   -0.7600    3.9964    0.0000 C   0  0  0  0  0  0  0  0  0  0  0  0
   -1.6395    2.7813    0.0000 C   0  0  0  0  0  0  0  0  0  0  0  0
    0.7321    3.8422    0.0000 C   0  0  0  0  0  0  0  0  0  0  0  0
    1.3446    2.4730    0.0000 C   0  0  0  0  0  0  0  0  0  0  0  0
    0.4651    1.2579    0.0000 N   0  0  0  0  0  0  0  0  0  0  0  0
    1.0776   -0.1113    0.0000 C   0  0  0  0  0  0  0  0  0  0  0  0
    2.5697   -0.2655    0.0000 O   0  0  0  0  0  0  0  0  0  0  0  0
    0.1981   -1.3264    0.0000 C   0  0  0  0  0  0  0  0  0  0  0  0
   -1.2940   -1.1723    0.0000 N   0  0  0  0  0  0  0  0  0  0  0  0
   -2.1735   -2.3873    0.0000 C   0  0  0  0  0  0  0  0  0  0  0  0
   -1.5610   -3.7566    0.0000 O   0  0  0  0  0  0  0  0  0  0  0  0
   -3.6656   -2.2332    0.0000 C   0  0  0  0  0  0  0  0  0  0  0  0
   -4.5451   -3.4482    0.0000 C   0  0  0  0  0  0  0  0  0  0  0  0
   -4.2781   -0.8639    0.0000 N   0  0  0  0  0  0  0  0  0  0  0  0
   -5.7702   -0.7097    0.0000 C   0  0  0  0  0  0  0  0  0  0  0  0
   -6.6497   -1.9248    0.0000 O   0  0  0  0  0  0  0  0  0  0  0  0
   -6.3827    0.6595    0.0000 O   0  0  0  0  0  0  0  0  0  0  0  0
   -7.8747    0.8137    0.0000 C   0  0  0  0  0  0  0  0  0  0  0  0
   -7.7206    2.3057    0.0000 C   0  0  0  0  0  0  0  0  0  0  0  0
   -8.0289   -0.6784    0.0000 C   0  0  0  0  0  0  0  0  0  0  0  0
   -9.3668    0.9678    0.0000 C   0  0  0  0  0  0  0  0  0  0  0  0
    0.8106   -2.6957    0.0000 C   0  0  0  0  0  0  0  0  0  0  0  0
   -0.0690   -3.9107    0.0000 C   0  0  0  0  0  0  0  0  0  0  0  0
    2.3026   -2.8498    0.0000 C   0  0  0  0  0  0  0  0  0  0  0  0
    2.8367    2.3188    0.0000 C   0  0  0  0  0  0  0  0  0  0  0  0
    3.7162    3.5339    0.0000 O   0  0  0  0  0  0  0  0  0  0  0  0
    3.4492    0.9496    0.0000 N   0  0  0  0  0  0  0  0  0  0  0  0
    4.9413    0.7954    0.0000 C   0  0  0  0  0  0  0  0  0  0  0  0
    5.5538   -0.5738    0.0000 C   0  0  0  0  0  0  0  0  0  0  0  0
    7.0458   -0.7280    0.0000 C   0  0  0  0  0  0  0  0  0  0  0  0
    7.6583   -2.0973    0.0000 C   0  0  0  0  0  0  0  0  0  0  0  0
    6.7788   -3.3123    0.0000 O   0  0  0  0  0  0  0  0  0  0  0  0
    9.1504   -2.2514    0.0000 N   0  0  0  0  0  0  0  0  0  0  0  0
    5.8208    2.0105    0.0000 C   0  0  0  0  0  0  0  0  0  0  0  0
    6.7003    3.2255    0.0000 N   0  0  0  0  0  0  0  0  0  0  0  0
  1  2  1  0
  2  3  1  0
  2  4  1  0
  4  5  1  0
  5  6  1  0
  5 26  1  0
  6  7  1  0
  7  8  2  0
  7  9  1  0
  9 10  1  0
  9 23  1  0
 10 11  1  0
 11 12  2  0
 11 13  1  0
 13 14  1  0
 13 15  1  0
 15 16  1  0
 16 17  2  0
 16 18  1  0
 18 19  1  0
 19 20  1  0
 19 21  1  0
 19 22  1  0
 23 24  1  0
 23 25  1  0
 26 27  2  0
 26 28  1  0
 28 29  1  0
 29 30  1  0
 29 35  1  0
 30 31  1  0
 31 32  1  0
 32 33  2  0
 32 34  1  0
 35 36  3  0
M  END
>  <s_m_entry_id>  (440) 
1036

>  <s_m_entry_name>  (440) 
3C-like_protease_GHDDI_ligprep.655

>  <s_m_Source_Path>  (440) 
/home/jgilaber/drug_learning/drug_learning/datasets/SAR1/GHDDI

>  <s_m_Source_File>  (440) 
3C-like_protease_GHDDI_ligprep.sdf

>  <i_m_Source_File_Index>  (440) 
655

>  <s_m_subgroup_title>  (440) 
3C-like_protease_GHDDI_ligprep

>  <s_m_subgroupid>  (440) 
3C-like_protease_GHDDI_ligprep

>  <b_m_subgroup_collapsed>  (440) 
0

$$$$
13961
     RDKit          2D

 37 37  0  0  1  0  0  0  0  0999 V2000
    6.0676   -3.2153    0.0000 C   0  0  0  0  0  0  0  0  0  0  0  0
    4.7147   -2.5676    0.0000 C   0  0  0  0  0  0  0  0  0  0  0  0
    4.5992   -1.0720    0.0000 C   0  0  0  0  0  0  0  0  0  0  0  0
    3.4772   -3.4154    0.0000 C   0  0  0  0  0  0  0  0  0  0  0  0
    2.1243   -2.7677    0.0000 C   0  0  0  0  0  0  0  0  0  0  0  0
    0.8869   -3.6155    0.0000 N   0  0  0  0  0  0  0  0  0  0  0  0
   -0.4661   -2.9677    0.0000 C   0  0  0  0  0  0  0  0  0  0  0  0
   -0.5816   -1.4722    0.0000 O   0  0  0  0  0  0  0  0  0  0  0  0
   -1.7035   -3.8155    0.0000 C   0  0  0  0  0  0  0  0  0  0  0  0
   -3.0564   -3.1678    0.0000 N   0  0  0  0  0  0  0  0  0  0  0  0
   -3.1719   -1.6722    0.0000 C   0  0  0  0  0  0  0  0  0  0  0  0
   -1.9345   -0.8244    0.0000 O   0  0  0  0  0  0  0  0  0  0  0  0
   -4.5249   -1.0245    0.0000 C   0  0  0  0  0  0  0  0  0  0  0  0
   -5.7623   -1.8723    0.0000 C   0  0  0  0  0  0  0  0  0  0  0  0
   -4.6404    0.4711    0.0000 N   0  0  0  0  0  0  0  0  0  0  0  0
   -3.4029    1.3189    0.0000 C   0  0  0  0  0  0  0  0  0  0  0  0
   -2.0500    0.6711    0.0000 O   0  0  0  0  0  0  0  0  0  0  0  0
   -3.5184    2.8144    0.0000 C   0  0  0  0  0  0  0  0  0  0  0  0
   -2.3764    3.7869    0.0000 N   0  0  0  0  0  0  0  0  0  0  0  0
   -2.9484    5.1736    0.0000 O   0  0  0  0  0  0  0  0  0  0  0  0
   -4.4440    5.0581    0.0000 C   0  0  0  0  0  0  0  0  0  0  0  0
   -5.4165    6.2001    0.0000 C   0  0  0  0  0  0  0  0  0  0  0  0
   -4.7963    3.6000    0.0000 C   0  0  0  0  0  0  0  0  0  0  0  0
   -1.5880   -5.3111    0.0000 C   0  0  0  0  0  0  0  0  0  0  0  0
   -0.2350   -5.9588    0.0000 C   0  0  0  0  0  0  0  0  0  0  0  0
   -2.8254   -6.1589    0.0000 C   0  0  0  0  0  0  0  0  0  0  0  0
    2.0088   -1.2721    0.0000 C   0  0  0  0  0  0  0  0  0  0  0  0
    0.6559   -0.6244    0.0000 O   0  0  0  0  0  0  0  0  0  0  0  0
    3.2462   -0.4243    0.0000 N   0  0  0  0  0  0  0  0  0  0  0  0
    3.1307    1.0712    0.0000 C   0  0  0  0  0  0  0  0  0  0  0  0
    4.3682    1.9190    0.0000 C   0  0  0  0  0  0  0  0  0  0  0  0
    4.2526    3.4146    0.0000 C   0  0  0  0  0  0  0  0  0  0  0  0
    5.4901    4.2624    0.0000 C   0  0  0  0  0  0  0  0  0  0  0  0
    6.8430    3.6147    0.0000 O   0  0  0  0  0  0  0  0  0  0  0  0
    5.3746    5.7579    0.0000 N   0  0  0  0  0  0  0  0  0  0  0  0
    1.7778    1.7190    0.0000 C   0  0  0  0  0  0  0  0  0  0  0  0
    0.4249    2.3667    0.0000 N   0  0  0  0  0  0  0  0  0  0  0  0
  1  2  1  0
  2  3  1  0
  2  4  1  0
  4  5  1  0
  5  6  1  0
  5 27  1  0
  6  7  1  0
  7  8  2  0
  7  9  1  0
  9 10  1  0
  9 24  1  0
 10 11  1  0
 11 12  2  0
 11 13  1  0
 13 14  1  0
 13 15  1  0
 15 16  1  0
 16 17  2  0
 16 18  1  0
 18 19  2  0
 18 23  1  0
 19 20  1  0
 20 21  1  0
 21 22  1  0
 21 23  1  0
 24 25  1  0
 24 26  1  0
 27 28  2  0
 27 29  1  0
 29 30  1  0
 30 31  1  0
 30 36  1  0
 31 32  1  0
 32 33  1  0
 33 34  2  0
 33 35  1  0
 36 37  3  0
M  END
>  <s_m_entry_id>  (441) 
1040

>  <s_m_entry_name>  (441) 
3C-like_protease_GHDDI_ligprep.659

>  <s_m_Source_Path>  (441) 
/home/jgilaber/drug_learning/drug_learning/datasets/SAR1/GHDDI

>  <s_m_Source_File>  (441) 
3C-like_protease_GHDDI_ligprep.sdf

>  <i_m_Source_File_Index>  (441) 
659

>  <s_m_subgroup_title>  (441) 
3C-like_protease_GHDDI_ligprep

>  <s_m_subgroupid>  (441) 
3C-like_protease_GHDDI_ligprep

>  <b_m_subgroup_collapsed>  (441) 
0

$$$$
13964
     RDKit          2D

 25 24  0  0  1  0  0  0  0  0999 V2000
   -1.1523    4.9460    0.0000 C   0  0  0  0  0  0  0  0  0  0  0  0
   -0.9939    3.4544    0.0000 C   0  0  0  0  0  0  0  0  0  0  0  0
    0.3771    2.8457    0.0000 N   0  0  0  0  0  0  0  0  0  0  0  0
    0.5355    1.3541    0.0000 C   0  0  0  0  0  0  0  0  0  0  0  0
   -0.6771    0.4711    0.0000 O   0  0  0  0  0  0  0  0  0  0  0  0
    1.9065    0.7455    0.0000 C   0  0  0  0  0  0  0  0  0  0  0  0
    2.0649   -0.7461    0.0000 C   0  0  0  0  0  0  0  0  0  0  0  0
    3.4359   -1.3547    0.0000 C   0  0  0  0  0  0  0  0  0  0  0  0
    3.5943   -2.8463    0.0000 C   0  0  0  0  0  0  0  0  0  0  0  0
    2.3817   -3.7293    0.0000 O   0  0  0  0  0  0  0  0  0  0  0  0
    4.9653   -3.4549    0.0000 O   0  0  0  0  0  0  0  0  0  0  0  0
    3.1190    1.6285    0.0000 N   0  0  0  0  0  0  0  0  0  0  0  0
    4.4900    1.0199    0.0000 C   0  0  0  0  0  0  0  0  0  0  0  0
    4.6484   -0.4717    0.0000 O   0  0  0  0  0  0  0  0  0  0  0  0
    5.7026    1.9029    0.0000 O   0  0  0  0  0  0  0  0  0  0  0  0
   -2.2065    2.5714    0.0000 C   0  0  0  0  0  0  0  0  0  0  0  0
   -3.5775    3.1800    0.0000 O   0  0  0  0  0  0  0  0  0  0  0  0
   -2.0481    1.0797    0.0000 N   0  0  0  0  0  0  0  0  0  0  0  0
   -3.2606    0.1968    0.0000 C   0  0  0  0  0  0  0  0  0  0  0  0
   -3.1022   -1.2949    0.0000 C   0  0  0  0  0  0  0  0  0  0  0  0
   -1.7312   -1.9035    0.0000 O   0  0  0  0  0  0  0  0  0  0  0  0
   -4.3148   -2.1779    0.0000 C   0  0  0  0  0  0  0  0  0  0  0  0
   -5.5273   -3.0609    0.0000 F   0  0  0  0  0  0  0  0  0  0  0  0
   -3.4318   -3.3904    0.0000 F   0  0  0  0  0  0  0  0  0  0  0  0
   -5.1978   -0.9653    0.0000 F   0  0  0  0  0  0  0  0  0  0  0  0
  1  2  1  0
  2  3  1  0
  2 16  1  0
  3  4  1  0
  4  5  2  0
  4  6  1  0
  6  7  1  0
  6 12  1  0
  7  8  1  0
  8  9  1  0
  9 10  2  0
  9 11  1  0
 12 13  1  0
 13 14  2  0
 13 15  1  0
 16 17  2  0
 16 18  1  0
 18 19  1  0
 19 20  1  0
 20 21  2  0
 20 22  1  0
 22 23  1  0
 22 24  1  0
 22 25  1  0
M  CHG  2  11  -1  15  -1
M  END
>  <s_m_entry_id>  (442) 
1051

>  <s_m_entry_name>  (442) 
3C-like_protease_GHDDI_ligprep.670

>  <s_m_Source_Path>  (442) 
/home/jgilaber/drug_learning/drug_learning/datasets/SAR1/GHDDI

>  <s_m_Source_File>  (442) 
3C-like_protease_GHDDI_ligprep.sdf

>  <i_m_Source_File_Index>  (442) 
670

>  <s_m_subgroup_title>  (442) 
3C-like_protease_GHDDI_ligprep

>  <s_m_subgroupid>  (442) 
3C-like_protease_GHDDI_ligprep

>  <b_m_subgroup_collapsed>  (442) 
0

$$$$
13965
     RDKit          2D

 34 34  0  0  1  0  0  0  0  0999 V2000
  -12.9965    1.2862    0.0000 C   0  0  0  0  0  0  0  0  0  0  0  0
  -11.8411    0.3296    0.0000 C   0  0  0  0  0  0  0  0  0  0  0  0
  -10.4349    0.8519    0.0000 C   0  0  0  0  0  0  0  0  0  0  0  0
   -9.2795   -0.1047    0.0000 C   0  0  0  0  0  0  0  0  0  0  0  0
   -7.8734    0.4176    0.0000 C   0  0  0  0  0  0  0  0  0  0  0  0
   -6.7180   -0.5390    0.0000 C   0  0  0  0  0  0  0  0  0  0  0  0
   -5.3119   -0.0167    0.0000 C   0  0  0  0  0  0  0  0  0  0  0  0
   -4.1565   -0.9733    0.0000 C   0  0  0  0  0  0  0  0  0  0  0  0
   -2.7504   -0.4510    0.0000 C   0  0  0  0  0  0  0  0  0  0  0  0
   -1.5950   -1.4076    0.0000 C   0  0  0  0  0  0  0  0  0  0  0  0
   -1.8457   -2.8865    0.0000 O   0  0  0  0  0  0  0  0  0  0  0  0
   -0.1889   -0.8853    0.0000 N   0  0  0  0  0  0  0  0  0  0  0  0
    0.9665   -1.8419    0.0000 C   0  0  0  0  0  0  0  0  0  0  0  0
    0.7158   -3.3208    0.0000 C   0  0  0  0  0  0  0  0  0  0  0  0
    1.8712   -4.2774    0.0000 C   0  0  0  0  0  0  0  0  0  0  0  0
    1.6204   -5.7563    0.0000 C   0  0  0  0  0  0  0  0  0  0  0  0
    3.2773   -3.7551    0.0000 C   0  0  0  0  0  0  0  0  0  0  0  0
    2.3727   -1.3196    0.0000 C   0  0  0  0  0  0  0  0  0  0  0  0
    3.5281   -2.2762    0.0000 O   0  0  0  0  0  0  0  0  0  0  0  0
    2.6234    0.1593    0.0000 N   0  0  0  0  0  0  0  0  0  0  0  0
    4.0295    0.6816    0.0000 C   0  0  0  0  0  0  0  0  0  0  0  0
    4.2803    2.1605    0.0000 C   0  0  0  0  0  0  0  0  0  0  0  0
    3.1249    3.1171    0.0000 C   0  0  0  0  0  0  0  0  0  0  0  0
    1.7188    2.5948    0.0000 C   0  0  0  0  0  0  0  0  0  0  0  0
    0.5634    3.5514    0.0000 C   0  0  0  0  0  0  0  0  0  0  0  0
    0.8141    5.0303    0.0000 C   0  0  0  0  0  0  0  0  0  0  0  0
    2.2203    5.5526    0.0000 C   0  0  0  0  0  0  0  0  0  0  0  0
    3.3756    4.5960    0.0000 C   0  0  0  0  0  0  0  0  0  0  0  0
    5.1849   -0.2750    0.0000 C   0  0  0  0  0  0  0  0  0  0  0  0
    4.9342   -1.7539    0.0000 O   0  0  0  0  0  0  0  0  0  0  0  0
    6.5911    0.2473    0.0000 C   0  0  0  0  0  0  0  0  0  0  0  0
    7.9972    0.7696    0.0000 F   0  0  0  0  0  0  0  0  0  0  0  0
    7.1134   -1.1588    0.0000 F   0  0  0  0  0  0  0  0  0  0  0  0
    6.0688    1.6534    0.0000 F   0  0  0  0  0  0  0  0  0  0  0  0
  1  2  1  0
  2  3  1  0
  3  4  1  0
  4  5  1  0
  5  6  1  0
  6  7  1  0
  7  8  1  0
  8  9  1  0
  9 10  1  0
 10 11  2  0
 10 12  1  0
 12 13  1  0
 13 14  1  0
 13 18  1  0
 14 15  1  0
 15 16  1  0
 15 17  1  0
 18 19  2  0
 18 20  1  0
 20 21  1  0
 21 22  1  0
 21 29  1  0
 22 23  1  0
 23 24  2  0
 23 28  1  0
 24 25  1  0
 25 26  2  0
 26 27  1  0
 27 28  2  0
 29 30  2  0
 29 31  1  0
 31 32  1  0
 31 33  1  0
 31 34  1  0
M  END
>  <s_m_entry_id>  (443) 
1052

>  <s_m_entry_name>  (443) 
3C-like_protease_GHDDI_ligprep.671

>  <s_m_Source_Path>  (443) 
/home/jgilaber/drug_learning/drug_learning/datasets/SAR1/GHDDI

>  <s_m_Source_File>  (443) 
3C-like_protease_GHDDI_ligprep.sdf

>  <i_m_Source_File_Index>  (443) 
671

>  <s_m_subgroup_title>  (443) 
3C-like_protease_GHDDI_ligprep

>  <s_m_subgroupid>  (443) 
3C-like_protease_GHDDI_ligprep

>  <b_m_subgroup_collapsed>  (443) 
0

$$$$
13966
     RDKit          2D

 21 24  0  0  1  0  0  0  0  0999 V2000
   -5.3636    0.5618    0.0000 C   0  0  0  0  0  0  0  0  0  0  0  0
   -4.1705   -0.3474    0.0000 C   0  0  0  0  0  0  0  0  0  0  0  0
   -4.2049   -1.8470    0.0000 C   0  0  0  0  0  0  0  0  0  0  0  0
   -2.7893   -2.3431    0.0000 O   0  0  0  0  0  0  0  0  0  0  0  0
   -1.8801   -1.1501    0.0000 C   0  0  0  0  0  0  0  0  0  0  0  0
   -2.7337    0.0833    0.0000 C   0  0  0  0  0  0  0  0  0  0  0  0
   -2.0924    1.4393    0.0000 C   0  0  0  0  0  0  0  0  0  0  0  0
   -2.9461    2.6727    0.0000 O   0  0  0  0  0  0  0  0  0  0  0  0
   -0.5974    1.5619    0.0000 C   0  0  0  0  0  0  0  0  0  0  0  0
    0.0439    2.9179    0.0000 O   0  0  0  0  0  0  0  0  0  0  0  0
    0.2562    0.3285    0.0000 C   0  0  0  0  0  0  0  0  0  0  0  0
   -0.3851   -1.0275    0.0000 C   0  0  0  0  0  0  0  0  0  0  0  0
    0.4686   -2.2609    0.0000 C   0  0  0  0  0  0  0  0  0  0  0  0
    1.9636   -2.1383    0.0000 C   0  0  0  0  0  0  0  0  0  0  0  0
    2.6049   -0.7823    0.0000 C   0  0  0  0  0  0  0  0  0  0  0  0
    4.0999   -0.6597    0.0000 C   0  0  0  0  0  0  0  0  0  0  0  0
    4.9535   -1.8931    0.0000 C   0  0  0  0  0  0  0  0  0  0  0  0
    4.7412    0.6963    0.0000 C   0  0  0  0  0  0  0  0  0  0  0  0
    3.8875    1.9297    0.0000 C   0  0  0  0  0  0  0  0  0  0  0  0
    2.3925    1.8071    0.0000 C   0  0  0  0  0  0  0  0  0  0  0  0
    1.7512    0.4511    0.0000 C   0  0  0  0  0  0  0  0  0  0  0  0
  1  2  1  0
  2  3  1  0
  2  6  1  0
  3  4  1  0
  4  5  1  0
  5  6  2  0
  5 12  1  0
  6  7  1  0
  7  8  2  0
  7  9  1  0
  9 10  2  0
  9 11  1  0
 11 12  2  0
 11 21  1  0
 12 13  1  0
 13 14  2  0
 14 15  1  0
 15 16  1  0
 15 21  2  0
 16 17  1  0
 16 18  2  0
 18 19  1  0
 19 20  2  0
 20 21  1  0
M  END
>  <s_m_entry_id>  (444) 
1054

>  <s_m_entry_name>  (444) 
3C-like_protease_GHDDI_ligprep.673

>  <s_m_Source_Path>  (444) 
/home/jgilaber/drug_learning/drug_learning/datasets/SAR1/GHDDI

>  <s_m_Source_File>  (444) 
3C-like_protease_GHDDI_ligprep.sdf

>  <i_m_Source_File_Index>  (444) 
673

>  <s_m_subgroup_title>  (444) 
3C-like_protease_GHDDI_ligprep

>  <s_m_subgroupid>  (444) 
3C-like_protease_GHDDI_ligprep

>  <b_m_subgroup_collapsed>  (444) 
0

$$$$
13967
     RDKit          2D

 30 32  0  0  1  0  0  0  0  0999 V2000
   -8.3170   -1.8558    0.0000 C   0  0  0  0  0  0  0  0  0  0  0  0
   -7.5360   -0.5751    0.0000 C   0  0  0  0  0  0  0  0  0  0  0  0
   -8.9329   -0.0284    0.0000 C   0  0  0  0  0  0  0  0  0  0  0  0
   -7.2402    0.8954    0.0000 C   0  0  0  0  0  0  0  0  0  0  0  0
   -5.8188    1.3745    0.0000 C   0  0  0  0  0  0  0  0  0  0  0  0
   -4.6932    0.3831    0.0000 C   0  0  0  0  0  0  0  0  0  0  0  0
   -3.2717    0.8621    0.0000 C   0  0  0  0  0  0  0  0  0  0  0  0
   -2.1461   -0.1293    0.0000 N   0  0  0  0  0  0  0  0  0  0  0  0
   -0.7247    0.3498    0.0000 C   0  0  0  0  0  0  0  0  0  0  0  0
    0.4009   -0.6417    0.0000 C   0  0  0  0  0  0  0  0  0  0  0  0
    1.8224   -0.1626    0.0000 C   0  0  0  0  0  0  0  0  0  0  0  0
    2.1182    1.3080    0.0000 C   0  0  0  0  0  0  0  0  0  0  0  0
    3.5396    1.7870    0.0000 N   0  0  0  0  0  0  0  0  0  0  0  0
    4.6652    0.7956    0.0000 C   0  0  0  0  0  0  0  0  0  0  0  0
    4.3694   -0.6750    0.0000 C   0  0  0  0  0  0  0  0  0  0  0  0
    2.9480   -1.1540    0.0000 C   0  0  0  0  0  0  0  0  0  0  0  0
    1.5266   -1.6331    0.0000 N   0  0  0  0  0  0  0  0  0  0  0  0
    5.4951   -1.6664    0.0000 C   0  0  0  0  0  0  0  0  0  0  0  0
    5.1992   -3.1369    0.0000 O   0  0  0  0  0  0  0  0  0  0  0  0
    6.9165   -1.1873    0.0000 C   0  0  0  0  0  0  0  0  0  0  0  0
    7.2123    0.2832    0.0000 C   0  0  0  0  0  0  0  0  0  0  0  0
    7.9932    1.5639    0.0000 C   0  0  0  0  0  0  0  0  0  0  0  0
    8.6091   -0.2635    0.0000 C   0  0  0  0  0  0  0  0  0  0  0  0
    6.0867    1.2747    0.0000 C   0  0  0  0  0  0  0  0  0  0  0  0
    0.9926    2.2994    0.0000 C   0  0  0  0  0  0  0  0  0  0  0  0
   -0.4289    1.8203    0.0000 C   0  0  0  0  0  0  0  0  0  0  0  0
   -4.9890   -1.0875    0.0000 C   0  0  0  0  0  0  0  0  0  0  0  0
   -3.8634   -2.0789    0.0000 O   0  0  0  0  0  0  0  0  0  0  0  0
   -6.4104   -1.5666    0.0000 C   0  0  0  0  0  0  0  0  0  0  0  0
   -5.5230    2.8451    0.0000 O   0  0  0  0  0  0  0  0  0  0  0  0
  1  2  1  0
  2  3  1  0
  2  4  1  0
  2 29  1  0
  4  5  1  0
  5  6  1  0
  5 30  2  0
  6  7  2  3
  6 27  1  0
  7  8  1  0
  8  9  1  0
  9 10  2  0
  9 26  1  0
 10 11  1  0
 11 12  2  0
 12 13  1  0
 12 25  1  0
 13 14  1  0
 14 15  1  0
 14 24  2  0
 15 16  1  0
 15 18  2  0
 16 17  3  0
 18 19  1  0
 18 20  1  0
 20 21  1  0
 21 22  1  0
 21 23  1  0
 21 24  1  0
 25 26  2  0
 27 28  2  0
 27 29  1  0
M  END
>  <s_m_entry_id>  (445) 
1056

>  <s_m_entry_name>  (445) 
3C-like_protease_GHDDI_ligprep.675

>  <s_m_Source_Path>  (445) 
/home/jgilaber/drug_learning/drug_learning/datasets/SAR1/GHDDI

>  <s_m_Source_File>  (445) 
3C-like_protease_GHDDI_ligprep.sdf

>  <i_m_Source_File_Index>  (445) 
675

>  <s_m_subgroup_title>  (445) 
3C-like_protease_GHDDI_ligprep

>  <s_m_subgroupid>  (445) 
3C-like_protease_GHDDI_ligprep

>  <b_m_subgroup_collapsed>  (445) 
0

$$$$
13969
     RDKit          2D

 26 29  0  0  1  0  0  0  0  0999 V2000
   -8.2413    1.1928    0.0000 O   0  0  0  0  0  0  0  0  0  0  0  0
   -6.8647    0.5970    0.0000 C   0  0  0  0  0  0  0  0  0  0  0  0
   -6.5375   -0.8668    0.0000 N   0  0  0  0  0  0  0  0  0  0  0  0
   -5.0441   -1.0080    0.0000 C   0  0  0  0  0  0  0  0  0  0  0  0
   -4.1498   -2.2123    0.0000 C   0  0  0  0  0  0  0  0  0  0  0  0
   -2.6597   -2.0399    0.0000 C   0  0  0  0  0  0  0  0  0  0  0  0
   -2.0640   -0.6633    0.0000 C   0  0  0  0  0  0  0  0  0  0  0  0
   -2.9583    0.5410    0.0000 C   0  0  0  0  0  0  0  0  0  0  0  0
   -4.4484    0.3686    0.0000 C   0  0  0  0  0  0  0  0  0  0  0  0
   -5.5735    1.3606    0.0000 C   0  0  0  0  0  0  0  0  0  0  0  0
   -5.4323    2.8539    0.0000 O   0  0  0  0  0  0  0  0  0  0  0  0
   -0.5739   -0.4909    0.0000 S   0  0  0  0  0  0  0  0  0  0  0  0
   -0.4016   -1.9810    0.0000 O   0  0  0  0  0  0  0  0  0  0  0  0
   -0.7463    0.9992    0.0000 O   0  0  0  0  0  0  0  0  0  0  0  0
    0.9161   -0.3185    0.0000 N   0  0  0  0  0  0  0  0  0  0  0  0
    1.8104   -1.5228    0.0000 C   0  0  0  0  0  0  0  0  0  0  0  0
    3.3005   -1.3504    0.0000 C   0  0  0  0  0  0  0  0  0  0  0  0
    3.8963    0.0262    0.0000 N   0  0  0  0  0  0  0  0  0  0  0  0
    3.0019    1.2305    0.0000 C   0  0  0  0  0  0  0  0  0  0  0  0
    1.5119    1.0581    0.0000 C   0  0  0  0  0  0  0  0  0  0  0  0
    5.3863    0.1986    0.0000 C   0  0  0  0  0  0  0  0  0  0  0  0
    6.2806   -1.0056    0.0000 C   0  0  0  0  0  0  0  0  0  0  0  0
    7.7707   -0.8332    0.0000 C   0  0  0  0  0  0  0  0  0  0  0  0
    8.3664    0.5434    0.0000 C   0  0  0  0  0  0  0  0  0  0  0  0
    7.4721    1.7476    0.0000 C   0  0  0  0  0  0  0  0  0  0  0  0
    5.9821    1.5752    0.0000 N   0  0  0  0  0  0  0  0  0  0  0  0
  1  2  2  0
  2  3  1  0
  2 10  1  0
  3  4  1  0
  4  5  2  0
  4  9  1  0
  5  6  1  0
  6  7  2  0
  7  8  1  0
  7 12  1  0
  8  9  2  0
  9 10  1  0
 10 11  2  0
 12 13  2  0
 12 14  2  0
 12 15  1  0
 15 16  1  0
 15 20  1  0
 16 17  1  0
 17 18  1  0
 18 19  1  0
 18 21  1  0
 19 20  1  0
 21 22  2  0
 21 26  1  0
 22 23  1  0
 23 24  2  0
 24 25  1  0
 25 26  2  0
M  END
>  <s_m_entry_id>  (446) 
1059

>  <s_m_entry_name>  (446) 
3C-like_protease_GHDDI_ligprep.678

>  <s_m_Source_Path>  (446) 
/home/jgilaber/drug_learning/drug_learning/datasets/SAR1/GHDDI

>  <s_m_Source_File>  (446) 
3C-like_protease_GHDDI_ligprep.sdf

>  <i_m_Source_File_Index>  (446) 
678

>  <s_m_subgroup_title>  (446) 
3C-like_protease_GHDDI_ligprep

>  <s_m_subgroupid>  (446) 
3C-like_protease_GHDDI_ligprep

>  <b_m_subgroup_collapsed>  (446) 
0

$$$$
13970
     RDKit          2D

 25 26  0  0  1  0  0  0  0  0999 V2000
   -6.0868    1.9548    0.0000 C   0  0  0  0  0  0  0  0  0  0  0  0
   -5.0535    0.8674    0.0000 O   0  0  0  0  0  0  0  0  0  0  0  0
   -3.5952    1.2186    0.0000 C   0  0  0  0  0  0  0  0  0  0  0  0
   -3.1702    2.6572    0.0000 C   0  0  0  0  0  0  0  0  0  0  0  0
   -1.7119    3.0083    0.0000 C   0  0  0  0  0  0  0  0  0  0  0  0
   -0.6786    1.9210    0.0000 C   0  0  0  0  0  0  0  0  0  0  0  0
    0.7797    2.2722    0.0000 C   0  0  0  0  0  0  0  0  0  0  0  0
    1.2047    3.7107    0.0000 O   0  0  0  0  0  0  0  0  0  0  0  0
    1.8130    1.1849    0.0000 C   0  0  0  0  0  0  0  0  0  0  0  0
    3.2713    1.5360    0.0000 C   0  0  0  0  0  0  0  0  0  0  0  0
    4.3046    0.4487    0.0000 C   0  0  0  0  0  0  0  0  0  0  0  0
    3.8796   -0.9898    0.0000 C   0  0  0  0  0  0  0  0  0  0  0  0
    4.9129   -2.0772    0.0000 C   0  0  0  0  0  0  0  0  0  0  0  0
    6.3712   -1.7260    0.0000 C   0  0  0  0  0  0  0  0  0  0  0  0
    7.4045   -2.8133    0.0000 O   0  0  0  0  0  0  0  0  0  0  0  0
    6.7962   -0.2874    0.0000 C   0  0  0  0  0  0  0  0  0  0  0  0
    5.7629    0.7999    0.0000 C   0  0  0  0  0  0  0  0  0  0  0  0
   -1.1036    0.4825    0.0000 C   0  0  0  0  0  0  0  0  0  0  0  0
   -0.0703   -0.6049    0.0000 O   0  0  0  0  0  0  0  0  0  0  0  0
   -2.5619    0.1313    0.0000 C   0  0  0  0  0  0  0  0  0  0  0  0
   -2.9870   -1.3072    0.0000 C   0  0  0  0  0  0  0  0  0  0  0  0
   -4.4453   -1.6584    0.0000 C   0  0  0  0  0  0  0  0  0  0  0  0
   -4.8703   -3.0970    0.0000 C   0  0  0  0  0  0  0  0  0  0  0  0
   -6.3286   -3.4481    0.0000 C   0  0  0  0  0  0  0  0  0  0  0  0
   -3.8370   -4.1843    0.0000 C   0  0  0  0  0  0  0  0  0  0  0  0
  1  2  1  0
  2  3  1  0
  3  4  2  0
  3 20  1  0
  4  5  1  0
  5  6  2  0
  6  7  1  0
  6 18  1  0
  7  8  2  0
  7  9  1  0
  9 10  2  0
 10 11  1  0
 11 12  2  0
 11 17  1  0
 12 13  1  0
 13 14  2  0
 14 15  1  0
 14 16  1  0
 16 17  2  0
 18 19  1  0
 18 20  2  0
 20 21  1  0
 21 22  1  0
 22 23  2  3
 23 24  1  0
 23 25  1  0
M  END
>  <s_m_entry_id>  (447) 
1060

>  <s_m_entry_name>  (447) 
3C-like_protease_GHDDI_ligprep.679

>  <s_m_Source_Path>  (447) 
/home/jgilaber/drug_learning/drug_learning/datasets/SAR1/GHDDI

>  <s_m_Source_File>  (447) 
3C-like_protease_GHDDI_ligprep.sdf

>  <i_m_Source_File_Index>  (447) 
679

>  <s_m_subgroup_title>  (447) 
3C-like_protease_GHDDI_ligprep

>  <s_m_subgroupid>  (447) 
3C-like_protease_GHDDI_ligprep

>  <b_m_subgroup_collapsed>  (447) 
0

$$$$
13975
     RDKit          2D

 25 27  0  0  1  0  0  0  0  0999 V2000
   -5.2637   -1.1992    0.0000 C   0  0  0  0  0  0  0  0  0  0  0  0
   -4.0307   -2.0533    0.0000 C   0  0  0  0  0  0  0  0  0  0  0  0
   -4.1538   -3.5482    0.0000 C   0  0  0  0  0  0  0  0  0  0  0  0
   -2.6744   -1.4124    0.0000 C   0  0  0  0  0  0  0  0  0  0  0  0
   -1.4414   -2.2666    0.0000 C   0  0  0  0  0  0  0  0  0  0  0  0
   -0.0851   -1.6257    0.0000 C   0  0  0  0  0  0  0  0  0  0  0  0
    1.1480   -2.4799    0.0000 C   0  0  0  0  0  0  0  0  0  0  0  0
    2.5042   -1.8390    0.0000 C   0  0  0  0  0  0  0  0  0  0  0  0
    2.6273   -0.3441    0.0000 C   0  0  0  0  0  0  0  0  0  0  0  0
    3.9835    0.2967    0.0000 C   0  0  0  0  0  0  0  0  0  0  0  0
    5.4772    0.4350    0.0000 C   0  0  0  0  0  0  0  0  0  0  0  0
    4.3791   -1.1502    0.0000 C   0  0  0  0  0  0  0  0  0  0  0  0
    5.8300   -1.5310    0.0000 O   0  0  0  0  0  0  0  0  0  0  0  0
    4.1067    1.7917    0.0000 C   0  0  0  0  0  0  0  0  0  0  0  0
    2.8736    2.6458    0.0000 C   0  0  0  0  0  0  0  0  0  0  0  0
    1.5174    2.0050    0.0000 C   0  0  0  0  0  0  0  0  0  0  0  0
    1.3942    0.5100    0.0000 C   0  0  0  0  0  0  0  0  0  0  0  0
    0.1612    1.3641    0.0000 C   0  0  0  0  0  0  0  0  0  0  0  0
    0.0380   -0.1308    0.0000 C   0  0  0  0  0  0  0  0  0  0  0  0
   -1.1951    0.7233    0.0000 C   0  0  0  0  0  0  0  0  0  0  0  0
   -2.5513    0.0825    0.0000 C   0  0  0  0  0  0  0  0  0  0  0  0
   -3.7844    0.9366    0.0000 O   0  0  0  0  0  0  0  0  0  0  0  0
   -3.6612    2.4315    0.0000 C   0  0  0  0  0  0  0  0  0  0  0  0
   -2.3050    3.0724    0.0000 O   0  0  0  0  0  0  0  0  0  0  0  0
   -4.8943    3.2857    0.0000 C   0  0  0  0  0  0  0  0  0  0  0  0
  1  2  1  0
  2  3  1  0
  2  4  1  0
  4  5  2  0
  4 21  1  0
  5  6  1  0
  6  7  1  0
  6 19  2  0
  7  8  1  0
  8  9  1  0
  9 10  1  0
  9 17  1  0
 10 11  1  0
 10 12  1  0
 10 14  1  0
 12 13  1  0
 14 15  1  0
 15 16  1  0
 16 17  1  0
 17 18  1  0
 17 19  1  0
 19 20  1  0
 20 21  2  0
 21 22  1  0
 22 23  1  0
 23 24  2  0
 23 25  1  0
M  END
>  <s_m_entry_id>  (448) 
1066

>  <s_m_entry_name>  (448) 
3C-like_protease_GHDDI_ligprep.685

>  <s_m_Source_Path>  (448) 
/home/jgilaber/drug_learning/drug_learning/datasets/SAR1/GHDDI

>  <s_m_Source_File>  (448) 
3C-like_protease_GHDDI_ligprep.sdf

>  <i_m_Source_File_Index>  (448) 
685

>  <s_m_subgroup_title>  (448) 
3C-like_protease_GHDDI_ligprep

>  <s_m_subgroupid>  (448) 
3C-like_protease_GHDDI_ligprep

>  <b_m_subgroup_collapsed>  (448) 
0

$$$$
13976
     RDKit          2D

 24 27  0  0  1  0  0  0  0  0999 V2000
    0.7288   -4.2245    0.0000 C   0  0  0  0  0  0  0  0  0  0  0  0
   -0.2351   -3.0752    0.0000 C   0  0  0  0  0  0  0  0  0  0  0  0
    0.1281   -1.6198    0.0000 C   0  0  0  0  0  0  0  0  0  0  0  0
   -1.1437   -0.8247    0.0000 C   0  0  0  0  0  0  0  0  0  0  0  0
   -2.2930   -1.7886    0.0000 C   0  0  0  0  0  0  0  0  0  0  0  0
   -1.7315   -3.1795    0.0000 S   0  0  0  0  0  0  0  0  0  0  0  0
   -3.7024   -1.2752    0.0000 C   0  0  0  0  0  0  0  0  0  0  0  0
   -4.8517   -2.2391    0.0000 O   0  0  0  0  0  0  0  0  0  0  0  0
   -3.9626    0.2021    0.0000 N   0  0  0  0  0  0  0  0  0  0  0  0
   -2.8132    1.1660    0.0000 C   0  0  0  0  0  0  0  0  0  0  0  0
   -3.0734    2.6433    0.0000 C   0  0  0  0  0  0  0  0  0  0  0  0
   -1.9241    3.6072    0.0000 C   0  0  0  0  0  0  0  0  0  0  0  0
   -0.5146    3.0938    0.0000 C   0  0  0  0  0  0  0  0  0  0  0  0
    0.6347    4.0577    0.0000 O   0  0  0  0  0  0  0  0  0  0  0  0
   -0.2545    1.6165    0.0000 C   0  0  0  0  0  0  0  0  0  0  0  0
    1.1549    1.1031    0.0000 C   0  0  0  0  0  0  0  0  0  0  0  0
    1.4150   -0.3741    0.0000 C   0  0  0  0  0  0  0  0  0  0  0  0
    2.8244   -0.8875    0.0000 C   0  0  0  0  0  0  0  0  0  0  0  0
    3.9737    0.0764    0.0000 C   0  0  0  0  0  0  0  0  0  0  0  0
    5.3831   -0.4370    0.0000 C   0  0  0  0  0  0  0  0  0  0  0  0
    5.6432   -1.9143    0.0000 N   0  0  0  0  0  0  0  0  0  0  0  0
    3.7136    1.5537    0.0000 C   0  0  0  0  0  0  0  0  0  0  0  0
    2.3042    2.0670    0.0000 C   0  0  0  0  0  0  0  0  0  0  0  0
   -1.4038    0.6526    0.0000 C   0  0  0  0  0  0  0  0  0  0  0  0
  1  2  1  0
  2  3  2  0
  2  6  1  0
  3  4  1  0
  4  5  2  0
  4 24  1  0
  5  6  1  0
  5  7  1  0
  7  8  2  0
  7  9  1  0
  9 10  1  0
 10 11  1  0
 10 24  2  0
 11 12  2  0
 12 13  1  0
 13 14  1  0
 13 15  2  0
 15 16  1  0
 15 24  1  0
 16 17  2  0
 16 23  1  0
 17 18  1  0
 18 19  2  0
 19 20  1  0
 19 22  1  0
 20 21  1  0
 22 23  2  0
M  CHG  1  21   1
M  END
>  <s_m_entry_id>  (449) 
1067

>  <s_m_entry_name>  (449) 
3C-like_protease_GHDDI_ligprep.686

>  <s_m_Source_Path>  (449) 
/home/jgilaber/drug_learning/drug_learning/datasets/SAR1/GHDDI

>  <s_m_Source_File>  (449) 
3C-like_protease_GHDDI_ligprep.sdf

>  <i_m_Source_File_Index>  (449) 
686

>  <s_m_subgroup_title>  (449) 
3C-like_protease_GHDDI_ligprep

>  <s_m_subgroupid>  (449) 
3C-like_protease_GHDDI_ligprep

>  <b_m_subgroup_collapsed>  (449) 
0

$$$$
13977
     RDKit          2D

 24 25  0  0  1  0  0  0  0  0999 V2000
    6.9252   -3.0693    0.0000 C   0  0  0  0  0  0  0  0  0  0  0  0
    6.6069   -1.6034    0.0000 C   0  0  0  0  0  0  0  0  0  0  0  0
    5.1783   -1.1461    0.0000 C   0  0  0  0  0  0  0  0  0  0  0  0
    4.8601    0.3197    0.0000 C   0  0  0  0  0  0  0  0  0  0  0  0
    3.4315    0.7770    0.0000 C   0  0  0  0  0  0  0  0  0  0  0  0
    2.3212   -0.2315    0.0000 C   0  0  0  0  0  0  0  0  0  0  0  0
    0.8926    0.2258    0.0000 C   0  0  0  0  0  0  0  0  0  0  0  0
   -0.2178   -0.7828    0.0000 C   0  0  0  0  0  0  0  0  0  0  0  0
    0.1005   -2.2486    0.0000 O   0  0  0  0  0  0  0  0  0  0  0  0
   -1.6464   -0.3255    0.0000 C   0  0  0  0  0  0  0  0  0  0  0  0
   -2.7567   -1.3340    0.0000 C   0  0  0  0  0  0  0  0  0  0  0  0
   -4.1853   -0.8767    0.0000 C   0  0  0  0  0  0  0  0  0  0  0  0
   -4.5035    0.5891    0.0000 C   0  0  0  0  0  0  0  0  0  0  0  0
   -5.9321    1.0464    0.0000 C   0  0  0  0  0  0  0  0  0  0  0  0
   -7.0425    0.0379    0.0000 C   0  0  0  0  0  0  0  0  0  0  0  0
   -8.4711    0.4952    0.0000 O   0  0  0  0  0  0  0  0  0  0  0  0
   -6.7242   -1.4280    0.0000 C   0  0  0  0  0  0  0  0  0  0  0  0
   -5.2956   -1.8853    0.0000 C   0  0  0  0  0  0  0  0  0  0  0  0
    0.5743    1.6916    0.0000 C   0  0  0  0  0  0  0  0  0  0  0  0
   -0.8543    2.1489    0.0000 O   0  0  0  0  0  0  0  0  0  0  0  0
    1.6846    2.7002    0.0000 C   0  0  0  0  0  0  0  0  0  0  0  0
    3.1132    2.2429    0.0000 C   0  0  0  0  0  0  0  0  0  0  0  0
    4.2236    3.2514    0.0000 O   0  0  0  0  0  0  0  0  0  0  0  0
    7.7173   -0.5949    0.0000 C   0  0  0  0  0  0  0  0  0  0  0  0
  1  2  1  0
  2  3  2  3
  2 24  1  0
  3  4  1  0
  4  5  1  0
  5  6  2  0
  5 22  1  0
  6  7  1  0
  7  8  1  0
  7 19  2  0
  8  9  2  0
  8 10  1  0
 10 11  2  0
 11 12  1  0
 12 13  2  0
 12 18  1  0
 13 14  1  0
 14 15  2  0
 15 16  1  0
 15 17  1  0
 17 18  2  0
 19 20  1  0
 19 21  1  0
 21 22  2  0
 22 23  1  0
M  END
>  <s_m_entry_id>  (450) 
1070

>  <s_m_entry_name>  (450) 
3C-like_protease_GHDDI_ligprep.689

>  <s_m_Source_Path>  (450) 
/home/jgilaber/drug_learning/drug_learning/datasets/SAR1/GHDDI

>  <s_m_Source_File>  (450) 
3C-like_protease_GHDDI_ligprep.sdf

>  <i_m_Source_File_Index>  (450) 
689

>  <s_m_subgroup_title>  (450) 
3C-like_protease_GHDDI_ligprep

>  <s_m_subgroupid>  (450) 
3C-like_protease_GHDDI_ligprep

>  <b_m_subgroup_collapsed>  (450) 
0

$$$$
13979
     RDKit          2D

 29 33  0  0  1  0  0  0  0  0999 V2000
   -8.1269   -0.8080    0.0000 N   0  0  0  0  0  0  0  0  0  0  0  0
   -7.1037    0.2888    0.0000 C   0  0  0  0  0  0  0  0  0  0  0  0
   -5.6149    0.1057    0.0000 N   0  0  0  0  0  0  0  0  0  0  0  0
   -4.9807    1.4650    0.0000 C   0  0  0  0  0  0  0  0  0  0  0  0
   -3.5082    1.7509    0.0000 C   0  0  0  0  0  0  0  0  0  0  0  0
   -2.5243    0.6186    0.0000 S   0  0  0  0  0  0  0  0  0  0  0  0
   -1.0518    0.9045    0.0000 C   0  0  0  0  0  0  0  0  0  0  0  0
   -0.4176    2.2638    0.0000 N   0  0  0  0  0  0  0  0  0  0  0  0
    1.0712    2.0807    0.0000 N   0  0  0  0  0  0  0  0  0  0  0  0
    1.3571    0.6082    0.0000 C   0  0  0  0  0  0  0  0  0  0  0  0
    2.7164   -0.0261    0.0000 C   0  0  0  0  0  0  0  0  0  0  0  0
    2.8468   -1.5204    0.0000 C   0  0  0  0  0  0  0  0  0  0  0  0
    4.2061   -2.1546    0.0000 C   0  0  0  0  0  0  0  0  0  0  0  0
    5.4350   -1.2945    0.0000 C   0  0  0  0  0  0  0  0  0  0  0  0
    5.3046    0.1998    0.0000 C   0  0  0  0  0  0  0  0  0  0  0  0
    6.5336    1.0599    0.0000 C   0  0  0  0  0  0  0  0  0  0  0  0
    6.4032    2.5542    0.0000 C   0  0  0  0  0  0  0  0  0  0  0  0
    5.0438    3.1884    0.0000 C   0  0  0  0  0  0  0  0  0  0  0  0
    3.8149    2.3283    0.0000 C   0  0  0  0  0  0  0  0  0  0  0  0
    3.9453    0.8340    0.0000 C   0  0  0  0  0  0  0  0  0  0  0  0
    0.0450   -0.1188    0.0000 N   0  0  0  0  0  0  0  0  0  0  0  0
   -0.1382   -1.6075    0.0000 C   0  0  0  0  0  0  0  0  0  0  0  0
   -1.5191   -2.1933    0.0000 C   0  0  0  0  0  0  0  0  0  0  0  0
   -1.7022   -3.6821    0.0000 C   0  0  0  0  0  0  0  0  0  0  0  0
   -0.5044   -4.5851    0.0000 C   0  0  0  0  0  0  0  0  0  0  0  0
    0.8764   -3.9993    0.0000 C   0  0  0  0  0  0  0  0  0  0  0  0
    1.0596   -2.5105    0.0000 C   0  0  0  0  0  0  0  0  0  0  0  0
   -6.0775    2.4883    0.0000 C   0  0  0  0  0  0  0  0  0  0  0  0
   -7.3896    1.7613    0.0000 S   0  0  0  0  0  0  0  0  0  0  0  0
  1  2  1  0
  2  3  2  0
  2 29  1  0
  3  4  1  0
  4  5  1  0
  4 28  2  0
  5  6  1  0
  6  7  1  0
  7  8  2  0
  7 21  1  0
  8  9  1  0
  9 10  2  0
 10 11  1  0
 10 21  1  0
 11 12  2  0
 11 20  1  0
 12 13  1  0
 13 14  2  0
 14 15  1  0
 15 16  1  0
 15 20  2  0
 16 17  2  0
 17 18  1  0
 18 19  2  0
 19 20  1  0
 21 22  1  0
 22 23  1  0
 22 27  1  0
 23 24  1  0
 24 25  1  0
 25 26  1  0
 26 27  1  0
 28 29  1  0
M  END
>  <s_m_entry_id>  (451) 
1075

>  <s_m_entry_name>  (451) 
3C-like_protease_GHDDI_ligprep.694

>  <s_m_Source_Path>  (451) 
/home/jgilaber/drug_learning/drug_learning/datasets/SAR1/GHDDI

>  <s_m_Source_File>  (451) 
3C-like_protease_GHDDI_ligprep.sdf

>  <i_m_Source_File_Index>  (451) 
694

>  <s_m_subgroup_title>  (451) 
3C-like_protease_GHDDI_ligprep

>  <s_m_subgroupid>  (451) 
3C-like_protease_GHDDI_ligprep

>  <b_m_subgroup_collapsed>  (451) 
0

$$$$
13981
     RDKit          2D

 40 40  0  0  1  0  0  0  0  0999 V2000
   -0.9758    2.9251    0.0000 C   0  0  0  0  0  0  0  0  0  0  0  0
    0.4382    2.4245    0.0000 C   0  0  0  0  0  0  0  0  0  0  0  0
    1.5787    3.3987    0.0000 C   0  0  0  0  0  0  0  0  0  0  0  0
    0.7117    0.9496    0.0000 C   0  0  0  0  0  0  0  0  0  0  0  0
    2.1257    0.4490    0.0000 C   0  0  0  0  0  0  0  0  0  0  0  0
    2.3991   -1.0258    0.0000 N   0  0  0  0  0  0  0  0  0  0  0  0
    1.2586   -2.0001    0.0000 C   0  0  0  0  0  0  0  0  0  0  0  0
    1.5321   -3.4750    0.0000 O   0  0  0  0  0  0  0  0  0  0  0  0
   -0.1554   -1.4995    0.0000 C   0  0  0  0  0  0  0  0  0  0  0  0
   -0.4289   -0.0246    0.0000 N   0  0  0  0  0  0  0  0  0  0  0  0
   -1.8429    0.4759    0.0000 C   0  0  0  0  0  0  0  0  0  0  0  0
   -2.1163    1.9508    0.0000 O   0  0  0  0  0  0  0  0  0  0  0  0
   -2.9834   -0.4983    0.0000 C   0  0  0  0  0  0  0  0  0  0  0  0
   -2.9166   -1.5898    0.0000 C   0  0  0  0  0  0  0  0  0  0  0  0
   -4.3974    0.0023    0.0000 N   0  0  0  0  0  0  0  0  0  0  0  0
   -5.5379   -0.9720    0.0000 C   0  0  0  0  0  0  0  0  0  0  0  0
   -5.2645   -2.4469    0.0000 O   0  0  0  0  0  0  0  0  0  0  0  0
   -6.9519   -0.4714    0.0000 C   0  0  0  0  0  0  0  0  0  0  0  0
   -8.0925   -1.4457    0.0000 C   0  0  0  0  0  0  0  0  0  0  0  0
   -9.5065   -0.9451    0.0000 O   0  0  0  0  0  0  0  0  0  0  0  0
   -7.2254    1.0035    0.0000 N   0  0  0  0  0  0  0  0  0  0  0  0
   -8.6394    1.5041    0.0000 C   0  0  0  0  0  0  0  0  0  0  0  0
   -9.7799    0.5298    0.0000 O   0  0  0  0  0  0  0  0  0  0  0  0
   -8.9129    2.9789    0.0000 C   0  0  0  0  0  0  0  0  0  0  0  0
   -1.2959   -2.4738    0.0000 C   0  0  0  0  0  0  0  0  0  0  0  0
   -1.0224   -3.9486    0.0000 C   0  0  0  0  0  0  0  0  0  0  0  0
   -2.3635   -2.2372    0.0000 C   0  0  0  0  0  0  0  0  0  0  0  0
    3.2662    1.4233    0.0000 C   0  0  0  0  0  0  0  0  0  0  0  0
    2.9927    2.8981    0.0000 O   0  0  0  0  0  0  0  0  0  0  0  0
    4.6802    0.9227    0.0000 N   0  0  0  0  0  0  0  0  0  0  0  0
    5.8207    1.8970    0.0000 C   0  0  0  0  0  0  0  0  0  0  0  0
    7.2347    1.3964    0.0000 C   0  0  0  0  0  0  0  0  0  0  0  0
    7.5082   -0.0785    0.0000 C   0  0  0  0  0  0  0  0  0  0  0  0
    6.3677   -1.0528    0.0000 C   0  0  0  0  0  0  0  0  0  0  0  0
    6.6412   -2.5276    0.0000 C   0  0  0  0  0  0  0  0  0  0  0  0
    8.0552   -3.0282    0.0000 C   0  0  0  0  0  0  0  0  0  0  0  0
    9.1957   -2.0539    0.0000 C   0  0  0  0  0  0  0  0  0  0  0  0
    8.9222   -0.5791    0.0000 C   0  0  0  0  0  0  0  0  0  0  0  0
    5.5473    3.3718    0.0000 C   0  0  0  0  0  0  0  0  0  0  0  0
    4.1333    3.8724    0.0000 O   0  0  0  0  0  0  0  0  0  0  0  0
  1  2  1  0
  2  3  1  0
  2  4  1  0
  4  5  1  0
  5  6  1  0
  5 28  1  0
  6  7  1  0
  7  8  2  0
  7  9  1  0
  9 10  1  0
  9 25  1  0
 10 11  1  0
 11 12  2  0
 11 13  1  0
 13 14  1  0
 13 15  1  0
 15 16  1  0
 16 17  2  0
 16 18  1  0
 18 19  1  0
 18 21  1  0
 19 20  1  0
 21 22  1  0
 22 23  2  0
 22 24  1  0
 25 26  1  0
 25 27  1  0
 28 29  2  0
 28 30  1  0
 30 31  1  0
 31 32  1  0
 31 39  1  0
 32 33  1  0
 33 34  1  0
 33 38  1  0
 34 35  1  0
 35 36  1  0
 36 37  1  0
 37 38  1  0
 39 40  2  0
M  END
>  <s_m_entry_id>  (452) 
1078

>  <s_m_entry_name>  (452) 
3C-like_protease_GHDDI_ligprep.697

>  <s_m_Source_Path>  (452) 
/home/jgilaber/drug_learning/drug_learning/datasets/SAR1/GHDDI

>  <s_m_Source_File>  (452) 
3C-like_protease_GHDDI_ligprep.sdf

>  <i_m_Source_File_Index>  (452) 
697

>  <s_m_subgroup_title>  (452) 
3C-like_protease_GHDDI_ligprep

>  <s_m_subgroupid>  (452) 
3C-like_protease_GHDDI_ligprep

>  <b_m_subgroup_collapsed>  (452) 
0

$$$$
13984
     RDKit          2D

 17 17  0  0  1  0  0  0  0  0999 V2000
   -5.8459   -0.8061    0.0000 C   0  0  0  0  0  0  0  0  0  0  0  0
   -4.6624    0.1155    0.0000 O   0  0  0  0  0  0  0  0  0  0  0  0
   -3.2725   -0.4486    0.0000 C   0  0  0  0  0  0  0  0  0  0  0  0
   -3.0661   -1.9343    0.0000 O   0  0  0  0  0  0  0  0  0  0  0  0
   -2.0890    0.4730    0.0000 C   0  0  0  0  0  0  0  0  0  0  0  0
   -0.6478    0.0572    0.0000 O   0  0  0  0  0  0  0  0  0  0  0  0
    0.1930    1.2995    0.0000 C   0  0  0  0  0  0  0  0  0  0  0  0
    1.6921    1.3494    0.0000 C   0  0  0  0  0  0  0  0  0  0  0  0
    2.4850    0.0761    0.0000 N   0  0  0  0  0  0  0  0  0  0  0  0
    3.9842    0.1260    0.0000 C   0  0  0  0  0  0  0  0  0  0  0  0
    4.7770   -1.1473    0.0000 C   0  0  0  0  0  0  0  0  0  0  0  0
    4.6905    1.4493    0.0000 C   0  0  0  0  0  0  0  0  0  0  0  0
    1.7787   -1.2472    0.0000 C   0  0  0  0  0  0  0  0  0  0  0  0
    2.5715   -2.5206    0.0000 C   0  0  0  0  0  0  0  0  0  0  0  0
    0.2795   -1.2972    0.0000 C   0  0  0  0  0  0  0  0  0  0  0  0
   -0.7286    2.4830    0.0000 C   0  0  0  0  0  0  0  0  0  0  0  0
   -2.1390    1.9722    0.0000 C   0  0  0  0  0  0  0  0  0  0  0  0
  1  2  1  0
  2  3  1  0
  3  4  2  0
  3  5  1  0
  5  6  1  0
  5 17  2  0
  6  7  1  0
  7  8  1  0
  7 16  2  0
  8  9  1  0
  9 10  1  0
  9 13  1  0
 10 11  1  0
 10 12  1  0
 13 14  1  0
 13 15  1  0
 16 17  1  0
M  CHG  1   9   1
M  END
>  <s_m_entry_id>  (453) 
1081

>  <s_m_entry_name>  (453) 
3C-like_protease_GHDDI_ligprep.700

>  <s_m_Source_Path>  (453) 
/home/jgilaber/drug_learning/drug_learning/datasets/SAR1/GHDDI

>  <s_m_Source_File>  (453) 
3C-like_protease_GHDDI_ligprep.sdf

>  <i_m_Source_File_Index>  (453) 
700

>  <s_m_subgroup_title>  (453) 
3C-like_protease_GHDDI_ligprep

>  <s_m_subgroupid>  (453) 
3C-like_protease_GHDDI_ligprep

>  <b_m_subgroup_collapsed>  (453) 
0

$$$$
13985
     RDKit          2D

 35 37  0  0  1  0  0  0  0  0999 V2000
    7.0121    0.6284    0.0000 C   0  0  0  0  0  0  0  0  0  0  0  0
    6.4026    1.9990    0.0000 O   0  0  0  0  0  0  0  0  0  0  0  0
    4.9109    2.1565    0.0000 C   0  0  0  0  0  0  0  0  0  0  0  0
    4.0287    0.9434    0.0000 C   0  0  0  0  0  0  0  0  0  0  0  0
    2.5369    1.1009    0.0000 C   0  0  0  0  0  0  0  0  0  0  0  0
    1.9275    2.4715    0.0000 C   0  0  0  0  0  0  0  0  0  0  0  0
    2.8097    3.6846    0.0000 C   0  0  0  0  0  0  0  0  0  0  0  0
    4.3014    3.5271    0.0000 C   0  0  0  0  0  0  0  0  0  0  0  0
    5.1837    4.7402    0.0000 O   0  0  0  0  0  0  0  0  0  0  0  0
    1.6547   -0.1122    0.0000 C   0  0  0  0  0  0  0  0  0  0  0  0
    2.1176   -1.5390    0.0000 N   0  0  0  0  0  0  0  0  0  0  0  0
    3.5439   -2.0032    0.0000 C   0  0  0  0  0  0  0  0  0  0  0  0
    3.8551   -3.4706    0.0000 C   0  0  0  0  0  0  0  0  0  0  0  0
    5.2815   -3.9348    0.0000 N   0  0  0  0  0  0  0  0  0  0  0  0
    5.5927   -5.4021    0.0000 C   0  0  0  0  0  0  0  0  0  0  0  0
    6.3967   -2.9316    0.0000 C   0  0  0  0  0  0  0  0  0  0  0  0
    0.9036   -2.4201    0.0000 C   0  0  0  0  0  0  0  0  0  0  0  0
    0.9029   -3.9201    0.0000 O   0  0  0  0  0  0  0  0  0  0  0  0
   -0.3095   -1.5379    0.0000 C   0  0  0  0  0  0  0  0  0  0  0  0
    0.1547   -0.1115    0.0000 C   0  0  0  0  0  0  0  0  0  0  0  0
   -0.7264    1.1024    0.0000 C   0  0  0  0  0  0  0  0  0  0  0  0
   -0.1157    2.4725    0.0000 O   0  0  0  0  0  0  0  0  0  0  0  0
   -2.2183    0.9463    0.0000 C   0  0  0  0  0  0  0  0  0  0  0  0
   -2.8290   -0.4237    0.0000 C   0  0  0  0  0  0  0  0  0  0  0  0
   -4.3209   -0.5798    0.0000 C   0  0  0  0  0  0  0  0  0  0  0  0
   -5.2020    0.6341    0.0000 C   0  0  0  0  0  0  0  0  0  0  0  0
   -6.6938    0.4780    0.0000 O   0  0  0  0  0  0  0  0  0  0  0  0
   -7.3046   -0.8920    0.0000 C   0  0  0  0  0  0  0  0  0  0  0  0
   -8.7964   -1.0481    0.0000 C   0  0  0  0  0  0  0  0  0  0  0  0
   -9.4072   -2.4181    0.0000 C   0  0  0  0  0  0  0  0  0  0  0  0
   -9.6775    0.1659    0.0000 C   0  0  0  0  0  0  0  0  0  0  0  0
   -4.5912    2.0042    0.0000 C   0  0  0  0  0  0  0  0  0  0  0  0
   -3.0994    2.1603    0.0000 C   0  0  0  0  0  0  0  0  0  0  0  0
   -2.4886    3.5303    0.0000 C   0  0  0  0  0  0  0  0  0  0  0  0
   -1.7363   -2.0007    0.0000 O   0  0  0  0  0  0  0  0  0  0  0  0
  1  2  1  0
  2  3  1  0
  3  4  2  0
  3  8  1  0
  4  5  1  0
  5  6  2  0
  5 10  1  0
  6  7  1  0
  7  8  2  0
  8  9  1  0
 10 11  1  0
 10 20  1  0
 11 12  1  0
 11 17  1  0
 12 13  1  0
 13 14  1  0
 14 15  1  0
 14 16  1  0
 17 18  2  0
 17 19  1  0
 19 20  2  0
 19 35  1  0
 20 21  1  0
 21 22  2  0
 21 23  1  0
 23 24  2  0
 23 33  1  0
 24 25  1  0
 25 26  2  0
 26 27  1  0
 26 32  1  0
 27 28  1  0
 28 29  1  0
 29 30  1  0
 29 31  1  0
 32 33  2  0
 33 34  1  0
M  CHG  2  14   1  35  -1
M  END
>  <s_m_entry_id>  (454) 
1085

>  <s_m_entry_name>  (454) 
3C-like_protease_GHDDI_ligprep.704

>  <s_m_Source_Path>  (454) 
/home/jgilaber/drug_learning/drug_learning/datasets/SAR1/GHDDI

>  <s_m_Source_File>  (454) 
3C-like_protease_GHDDI_ligprep.sdf

>  <i_m_Source_File_Index>  (454) 
704

>  <s_m_subgroup_title>  (454) 
3C-like_protease_GHDDI_ligprep

>  <s_m_subgroupid>  (454) 
3C-like_protease_GHDDI_ligprep

>  <b_m_subgroup_collapsed>  (454) 
0

$$$$
13987
     RDKit          2D

 35 37  0  0  1  0  0  0  0  0999 V2000
   -7.0442   -1.9457    0.0000 C   0  0  0  0  0  0  0  0  0  0  0  0
   -6.6451   -0.4997    0.0000 C   0  0  0  0  0  0  0  0  0  0  0  0
   -7.6977    0.5689    0.0000 C   0  0  0  0  0  0  0  0  0  0  0  0
   -7.2985    2.0148    0.0000 C   0  0  0  0  0  0  0  0  0  0  0  0
   -5.8468    2.3921    0.0000 C   0  0  0  0  0  0  0  0  0  0  0  0
   -4.7941    1.3234    0.0000 C   0  0  0  0  0  0  0  0  0  0  0  0
   -5.1933   -0.1225    0.0000 C   0  0  0  0  0  0  0  0  0  0  0  0
   -4.1407   -1.1911    0.0000 C   0  0  0  0  0  0  0  0  0  0  0  0
   -4.5398   -2.6370    0.0000 O   0  0  0  0  0  0  0  0  0  0  0  0
   -2.6889   -0.8138    0.0000 O   0  0  0  0  0  0  0  0  0  0  0  0
   -1.6363   -1.8825    0.0000 C   0  0  0  0  0  0  0  0  0  0  0  0
   -0.1845   -1.5052    0.0000 C   0  0  0  0  0  0  0  0  0  0  0  0
    0.2147   -0.0593    0.0000 N   0  0  0  0  0  0  0  0  0  0  0  0
    1.6664    0.3180    0.0000 C   0  0  0  0  0  0  0  0  0  0  0  0
    2.7191   -0.7506    0.0000 O   0  0  0  0  0  0  0  0  0  0  0  0
    2.0656    1.7639    0.0000 C   0  0  0  0  0  0  0  0  0  0  0  0
    3.5174    2.1412    0.0000 C   0  0  0  0  0  0  0  0  0  0  0  0
    3.9165    3.5871    0.0000 C   0  0  0  0  0  0  0  0  0  0  0  0
    5.3683    3.9644    0.0000 C   0  0  0  0  0  0  0  0  0  0  0  0
    5.7675    5.4103    0.0000 C   0  0  0  0  0  0  0  0  0  0  0  0
    4.7148    6.4790    0.0000 C   0  0  0  0  0  0  0  0  0  0  0  0
    3.2631    6.1017    0.0000 C   0  0  0  0  0  0  0  0  0  0  0  0
    2.8639    4.6558    0.0000 C   0  0  0  0  0  0  0  0  0  0  0  0
    0.8681   -2.5738    0.0000 C   0  0  0  0  0  0  0  0  0  0  0  0
    0.4690   -4.0197    0.0000 O   0  0  0  0  0  0  0  0  0  0  0  0
    2.3199   -2.1965    0.0000 N   0  0  0  0  0  0  0  0  0  0  0  0
    3.3725   -3.2652    0.0000 C   0  0  0  0  0  0  0  0  0  0  0  0
    2.9734   -4.7111    0.0000 C   0  0  0  0  0  0  0  0  0  0  0  0
    4.0260   -5.7797    0.0000 C   0  0  0  0  0  0  0  0  0  0  0  0
    5.4778   -5.4024    0.0000 C   0  0  0  0  0  0  0  0  0  0  0  0
    5.8769   -3.9565    0.0000 C   0  0  0  0  0  0  0  0  0  0  0  0
    4.8243   -2.8879    0.0000 C   0  0  0  0  0  0  0  0  0  0  0  0
   -3.3424    1.7007    0.0000 N   0  0  0  0  0  0  0  0  0  0  0  0
   -2.2897    0.6321    0.0000 O   0  0  0  0  0  0  0  0  0  0  0  0
   -2.9432    3.1466    0.0000 O   0  0  0  0  0  0  0  0  0  0  0  0
  1  2  1  0
  2  3  2  0
  2  7  1  0
  3  4  1  0
  4  5  2  0
  5  6  1  0
  6  7  2  0
  6 33  1  0
  7  8  1  0
  8  9  2  0
  8 10  1  0
 10 11  1  0
 11 12  1  0
 12 13  1  0
 12 24  1  0
 13 14  1  0
 14 15  2  0
 14 16  1  0
 16 17  2  0
 17 18  1  0
 18 19  2  0
 18 23  1  0
 19 20  1  0
 20 21  2  0
 21 22  1  0
 22 23  2  0
 24 25  2  0
 24 26  1  0
 26 27  1  0
 27 28  1  0
 27 32  1  0
 28 29  1  0
 29 30  1  0
 30 31  1  0
 31 32  1  0
 33 34  2  0
 33 35  1  0
M  CHG  2  33   1  35  -1
M  END
>  <s_m_entry_id>  (455) 
1090

>  <s_m_entry_name>  (455) 
3C-like_protease_GHDDI_ligprep.709

>  <s_m_Source_Path>  (455) 
/home/jgilaber/drug_learning/drug_learning/datasets/SAR1/GHDDI

>  <s_m_Source_File>  (455) 
3C-like_protease_GHDDI_ligprep.sdf

>  <i_m_Source_File_Index>  (455) 
709

>  <s_m_subgroup_title>  (455) 
3C-like_protease_GHDDI_ligprep

>  <s_m_subgroupid>  (455) 
3C-like_protease_GHDDI_ligprep

>  <b_m_subgroup_collapsed>  (455) 
0

$$$$
13988
     RDKit          2D

 30 31  0  0  1  0  0  0  0  0999 V2000
   -4.6469   -2.6691    0.0000 C   0  0  0  0  0  0  0  0  0  0  0  0
   -4.1226   -1.2637    0.0000 O   0  0  0  0  0  0  0  0  0  0  0  0
   -5.0775   -0.1070    0.0000 C   0  0  0  0  0  0  0  0  0  0  0  0
   -6.5568   -0.3556    0.0000 C   0  0  0  0  0  0  0  0  0  0  0  0
   -7.5117    0.8011    0.0000 C   0  0  0  0  0  0  0  0  0  0  0  0
   -8.9910    0.5525    0.0000 O   0  0  0  0  0  0  0  0  0  0  0  0
   -6.9874    2.2065    0.0000 C   0  0  0  0  0  0  0  0  0  0  0  0
   -5.5081    2.4552    0.0000 C   0  0  0  0  0  0  0  0  0  0  0  0
   -4.5532    1.2984    0.0000 C   0  0  0  0  0  0  0  0  0  0  0  0
   -3.0740    1.5470    0.0000 C   0  0  0  0  0  0  0  0  0  0  0  0
   -2.1190    0.3903    0.0000 C   0  0  0  0  0  0  0  0  0  0  0  0
   -0.6398    0.6389    0.0000 C   0  0  0  0  0  0  0  0  0  0  0  0
    0.3152   -0.5178    0.0000 C   0  0  0  0  0  0  0  0  0  0  0  0
   -0.2091   -1.9232    0.0000 C   0  0  0  0  0  0  0  0  0  0  0  0
    0.7458   -3.0800    0.0000 C   0  0  0  0  0  0  0  0  0  0  0  0
    0.2215   -4.4854    0.0000 O   0  0  0  0  0  0  0  0  0  0  0  0
    2.2251   -2.8313    0.0000 C   0  0  0  0  0  0  0  0  0  0  0  0
    3.1800   -3.9881    0.0000 O   0  0  0  0  0  0  0  0  0  0  0  0
    2.7494   -1.4260    0.0000 C   0  0  0  0  0  0  0  0  0  0  0  0
    4.2286   -1.1773    0.0000 C   0  0  0  0  0  0  0  0  0  0  0  0
    4.7529    0.2281    0.0000 C   0  0  0  0  0  0  0  0  0  0  0  0
    6.2322    0.4767    0.0000 C   0  0  0  0  0  0  0  0  0  0  0  0
    6.7565    1.8821    0.0000 C   0  0  0  0  0  0  0  0  0  0  0  0
    7.1871   -0.6801    0.0000 C   0  0  0  0  0  0  0  0  0  0  0  0
    1.7944   -0.2692    0.0000 C   0  0  0  0  0  0  0  0  0  0  0  0
    2.3187    1.1362    0.0000 C   0  0  0  0  0  0  0  0  0  0  0  0
    3.7980    1.3848    0.0000 C   0  0  0  0  0  0  0  0  0  0  0  0
    4.3223    2.7902    0.0000 C   0  0  0  0  0  0  0  0  0  0  0  0
    5.8016    3.0388    0.0000 C   0  0  0  0  0  0  0  0  0  0  0  0
    3.3674    3.9470    0.0000 C   0  0  0  0  0  0  0  0  0  0  0  0
  1  2  1  0
  2  3  1  0
  3  4  2  0
  3  9  1  0
  4  5  1  0
  5  6  1  0
  5  7  2  0
  7  8  1  0
  8  9  2  0
  9 10  1  0
 10 11  1  0
 11 12  1  0
 12 13  1  0
 13 14  2  0
 13 25  1  0
 14 15  1  0
 15 16  1  0
 15 17  2  0
 17 18  1  0
 17 19  1  0
 19 20  1  0
 19 25  2  0
 20 21  1  0
 21 22  2  3
 22 23  1  0
 22 24  1  0
 25 26  1  0
 26 27  1  0
 27 28  2  3
 28 29  1  0
 28 30  1  0
M  END
>  <s_m_entry_id>  (456) 
1092

>  <s_m_entry_name>  (456) 
3C-like_protease_GHDDI_ligprep.711

>  <s_m_Source_Path>  (456) 
/home/jgilaber/drug_learning/drug_learning/datasets/SAR1/GHDDI

>  <s_m_Source_File>  (456) 
3C-like_protease_GHDDI_ligprep.sdf

>  <i_m_Source_File_Index>  (456) 
711

>  <s_m_subgroup_title>  (456) 
3C-like_protease_GHDDI_ligprep

>  <s_m_subgroupid>  (456) 
3C-like_protease_GHDDI_ligprep

>  <b_m_subgroup_collapsed>  (456) 
0

$$$$
13990
     RDKit          2D

 37 39  0  0  1  0  0  0  0  0999 V2000
    8.0927   -3.2961    0.0000 C   0  0  0  0  0  0  0  0  0  0  0  0
    8.4835   -1.8479    0.0000 O   0  0  0  0  0  0  0  0  0  0  0  0
    7.4246   -0.7854    0.0000 C   0  0  0  0  0  0  0  0  0  0  0  0
    5.9751   -1.1712    0.0000 C   0  0  0  0  0  0  0  0  0  0  0  0
    4.9163   -0.1087    0.0000 C   0  0  0  0  0  0  0  0  0  0  0  0
    3.4667   -0.4944    0.0000 C   0  0  0  0  0  0  0  0  0  0  0  0
    2.4079    0.5681    0.0000 C   0  0  0  0  0  0  0  0  0  0  0  0
    0.9583    0.1823    0.0000 C   0  0  0  0  0  0  0  0  0  0  0  0
    0.5676   -1.2659    0.0000 O   0  0  0  0  0  0  0  0  0  0  0  0
   -0.1005    1.2448    0.0000 N   0  0  0  0  0  0  0  0  0  0  0  0
   -1.5501    0.8591    0.0000 C   0  0  0  0  0  0  0  0  0  0  0  0
   -2.6089    1.9216    0.0000 C   0  0  0  0  0  0  0  0  0  0  0  0
   -4.0585    1.5359    0.0000 O   0  0  0  0  0  0  0  0  0  0  0  0
   -5.1173    2.5983    0.0000 C   0  0  0  0  0  0  0  0  0  0  0  0
   -4.7266    4.0466    0.0000 O   0  0  0  0  0  0  0  0  0  0  0  0
   -6.5668    2.2126    0.0000 C   0  0  0  0  0  0  0  0  0  0  0  0
   -7.6257    3.2751    0.0000 C   0  0  0  0  0  0  0  0  0  0  0  0
   -9.0752    2.8894    0.0000 C   0  0  0  0  0  0  0  0  0  0  0  0
   -9.4660    1.4412    0.0000 C   0  0  0  0  0  0  0  0  0  0  0  0
   -8.4071    0.3787    0.0000 C   0  0  0  0  0  0  0  0  0  0  0  0
   -6.9576    0.7644    0.0000 C   0  0  0  0  0  0  0  0  0  0  0  0
   -1.9408   -0.5891    0.0000 C   0  0  0  0  0  0  0  0  0  0  0  0
   -0.8820   -1.6516    0.0000 O   0  0  0  0  0  0  0  0  0  0  0  0
   -3.3904   -0.9748    0.0000 N   0  0  0  0  0  0  0  0  0  0  0  0
   -3.7811   -2.4231    0.0000 C   0  0  0  0  0  0  0  0  0  0  0  0
   -5.2306   -2.8088    0.0000 C   0  0  0  0  0  0  0  0  0  0  0  0
   -5.6214   -4.2570    0.0000 C   0  0  0  0  0  0  0  0  0  0  0  0
   -4.5625   -5.3195    0.0000 C   0  0  0  0  0  0  0  0  0  0  0  0
   -3.1130   -4.9338    0.0000 C   0  0  0  0  0  0  0  0  0  0  0  0
   -2.7223   -3.4855    0.0000 C   0  0  0  0  0  0  0  0  0  0  0  0
    5.3070    1.3395    0.0000 C   0  0  0  0  0  0  0  0  0  0  0  0
    6.7565    1.7253    0.0000 C   0  0  0  0  0  0  0  0  0  0  0  0
    7.1473    3.1735    0.0000 O   0  0  0  0  0  0  0  0  0  0  0  0
    8.5968    3.5592    0.0000 C   0  0  0  0  0  0  0  0  0  0  0  0
    7.8154    0.6628    0.0000 C   0  0  0  0  0  0  0  0  0  0  0  0
    9.2649    1.0485    0.0000 O   0  0  0  0  0  0  0  0  0  0  0  0
   10.3237   -0.0140    0.0000 C   0  0  0  0  0  0  0  0  0  0  0  0
  1  2  1  0
  2  3  1  0
  3  4  2  0
  3 35  1  0
  4  5  1  0
  5  6  1  0
  5 31  2  0
  6  7  2  0
  7  8  1  0
  8  9  2  0
  8 10  1  0
 10 11  1  0
 11 12  1  0
 11 22  1  0
 12 13  1  0
 13 14  1  0
 14 15  2  0
 14 16  1  0
 16 17  2  0
 16 21  1  0
 17 18  1  0
 18 19  2  0
 19 20  1  0
 20 21  2  0
 22 23  2  0
 22 24  1  0
 24 25  1  0
 25 26  1  0
 25 30  1  0
 26 27  1  0
 27 28  1  0
 28 29  1  0
 29 30  1  0
 31 32  1  0
 32 33  1  0
 32 35  2  0
 33 34  1  0
 35 36  1  0
 36 37  1  0
M  END
>  <s_m_entry_id>  (457) 
1094

>  <s_m_entry_name>  (457) 
3C-like_protease_GHDDI_ligprep.713

>  <s_m_Source_Path>  (457) 
/home/jgilaber/drug_learning/drug_learning/datasets/SAR1/GHDDI

>  <s_m_Source_File>  (457) 
3C-like_protease_GHDDI_ligprep.sdf

>  <i_m_Source_File_Index>  (457) 
713

>  <s_m_subgroup_title>  (457) 
3C-like_protease_GHDDI_ligprep

>  <s_m_subgroupid>  (457) 
3C-like_protease_GHDDI_ligprep

>  <b_m_subgroup_collapsed>  (457) 
0

$$$$
13993
     RDKit          2D

 22 23  0  0  1  0  0  0  0  0999 V2000
   -3.8662    2.5972    0.0000 C   0  0  0  0  0  0  0  0  0  0  0  0
   -4.0372    1.1070    0.0000 C   0  0  0  0  0  0  0  0  0  0  0  0
   -5.4133    0.5100    0.0000 C   0  0  0  0  0  0  0  0  0  0  0  0
   -5.5843   -0.9802    0.0000 C   0  0  0  0  0  0  0  0  0  0  0  0
   -6.9604   -1.5773    0.0000 O   0  0  0  0  0  0  0  0  0  0  0  0
   -2.8321    0.2138    0.0000 C   0  0  0  0  0  0  0  0  0  0  0  0
   -1.4561    0.8108    0.0000 C   0  0  0  0  0  0  0  0  0  0  0  0
   -0.2510   -0.0824    0.0000 C   0  0  0  0  0  0  0  0  0  0  0  0
   -0.4220   -1.5726    0.0000 C   0  0  0  0  0  0  0  0  0  0  0  0
   -1.7981   -2.1696    0.0000 C   0  0  0  0  0  0  0  0  0  0  0  0
    0.7830   -2.4658    0.0000 C   0  0  0  0  0  0  0  0  0  0  0  0
    2.1591   -1.8688    0.0000 C   0  0  0  0  0  0  0  0  0  0  0  0
    2.3301   -0.3786    0.0000 C   0  0  0  0  0  0  0  0  0  0  0  0
    3.7062    0.2184    0.0000 C   0  0  0  0  0  0  0  0  0  0  0  0
    5.2035    0.3088    0.0000 C   0  0  0  0  0  0  0  0  0  0  0  0
    4.0552   -1.2404    0.0000 C   0  0  0  0  0  0  0  0  0  0  0  0
    5.4931   -1.6676    0.0000 O   0  0  0  0  0  0  0  0  0  0  0  0
    3.8772    1.7086    0.0000 C   0  0  0  0  0  0  0  0  0  0  0  0
    2.6721    2.6018    0.0000 C   0  0  0  0  0  0  0  0  0  0  0  0
    1.2961    2.0048    0.0000 C   0  0  0  0  0  0  0  0  0  0  0  0
    1.1251    0.5146    0.0000 C   0  0  0  0  0  0  0  0  0  0  0  0
   -0.0800    1.4078    0.0000 C   0  0  0  0  0  0  0  0  0  0  0  0
  1  2  1  0
  2  3  2  0
  2  6  1  0
  3  4  1  0
  4  5  1  0
  6  7  1  0
  7  8  1  0
  8  9  1  0
  8 21  1  0
  9 10  2  0
  9 11  1  0
 11 12  1  0
 12 13  1  0
 13 14  1  0
 13 21  1  0
 14 15  1  0
 14 16  1  0
 14 18  1  0
 16 17  1  0
 18 19  1  0
 19 20  1  0
 20 21  1  0
 21 22  1  0
M  END
>  <s_m_entry_id>  (458) 
1097

>  <s_m_entry_name>  (458) 
3C-like_protease_GHDDI_ligprep.716

>  <s_m_Source_Path>  (458) 
/home/jgilaber/drug_learning/drug_learning/datasets/SAR1/GHDDI

>  <s_m_Source_File>  (458) 
3C-like_protease_GHDDI_ligprep.sdf

>  <i_m_Source_File_Index>  (458) 
716

>  <s_m_subgroup_title>  (458) 
3C-like_protease_GHDDI_ligprep

>  <s_m_subgroupid>  (458) 
3C-like_protease_GHDDI_ligprep

>  <b_m_subgroup_collapsed>  (458) 
0

$$$$
13994
     RDKit          2D

 28 31  0  0  1  0  0  0  0  0999 V2000
   -8.4032   -0.9599    0.0000 C   0  0  0  0  0  0  0  0  0  0  0  0
   -6.9229   -0.7176    0.0000 N   0  0  0  0  0  0  0  0  0  0  0  0
   -6.3926    0.6856    0.0000 C   0  0  0  0  0  0  0  0  0  0  0  0
   -4.9123    0.9279    0.0000 C   0  0  0  0  0  0  0  0  0  0  0  0
   -3.9623   -0.2329    0.0000 N   0  0  0  0  0  0  0  0  0  0  0  0
   -4.4926   -1.6361    0.0000 C   0  0  0  0  0  0  0  0  0  0  0  0
   -5.9729   -1.8784    0.0000 C   0  0  0  0  0  0  0  0  0  0  0  0
   -2.4820    0.0094    0.0000 S   0  0  0  0  0  0  0  0  0  0  0  0
   -2.7243    1.4897    0.0000 O   0  0  0  0  0  0  0  0  0  0  0  0
   -2.2397   -1.4709    0.0000 O   0  0  0  0  0  0  0  0  0  0  0  0
   -1.0017    0.2517    0.0000 C   0  0  0  0  0  0  0  0  0  0  0  0
   -0.0517   -0.9091    0.0000 C   0  0  0  0  0  0  0  0  0  0  0  0
    1.4286   -0.6668    0.0000 C   0  0  0  0  0  0  0  0  0  0  0  0
    1.9589    0.7363    0.0000 C   0  0  0  0  0  0  0  0  0  0  0  0
    3.3565    1.2811    0.0000 N   0  0  0  0  0  0  0  0  0  0  0  0
    4.6187    0.4707    0.0000 C   0  0  0  0  0  0  0  0  0  0  0  0
    4.5479   -1.0277    0.0000 C   0  0  0  0  0  0  0  0  0  0  0  0
    3.2150   -1.7156    0.0000 C   0  0  0  0  0  0  0  0  0  0  0  0
    3.1442   -3.2139    0.0000 C   0  0  0  0  0  0  0  0  0  0  0  0
    4.4064   -4.0243    0.0000 C   0  0  0  0  0  0  0  0  0  0  0  0
    5.7394   -3.3364    0.0000 C   0  0  0  0  0  0  0  0  0  0  0  0
    5.8101   -1.8381    0.0000 C   0  0  0  0  0  0  0  0  0  0  0  0
    3.2702    2.7786    0.0000 C   0  0  0  0  0  0  0  0  0  0  0  0
    4.4310    3.7286    0.0000 O   0  0  0  0  0  0  0  0  0  0  0  0
    1.8193    3.1594    0.0000 C   0  0  0  0  0  0  0  0  0  0  0  0
    1.2745    4.5569    0.0000 O   0  0  0  0  0  0  0  0  0  0  0  0
    1.0089    1.8971    0.0000 C   0  0  0  0  0  0  0  0  0  0  0  0
   -0.4714    1.6548    0.0000 C   0  0  0  0  0  0  0  0  0  0  0  0
  1  2  1  0
  2  3  1  0
  2  7  1  0
  3  4  1  0
  4  5  1  0
  5  6  1  0
  5  8  1  0
  6  7  1  0
  8  9  2  0
  8 10  2  0
  8 11  1  0
 11 12  2  0
 11 28  1  0
 12 13  1  0
 13 14  2  0
 14 15  1  0
 14 27  1  0
 15 16  1  0
 15 23  1  0
 16 17  1  0
 17 18  2  0
 17 22  1  0
 18 19  1  0
 19 20  2  0
 20 21  1  0
 21 22  2  0
 23 24  2  0
 23 25  1  0
 25 26  2  0
 25 27  1  0
 27 28  2  0
M  END
>  <s_m_entry_id>  (459) 
1098

>  <s_m_entry_name>  (459) 
3C-like_protease_GHDDI_ligprep.717

>  <s_m_Source_Path>  (459) 
/home/jgilaber/drug_learning/drug_learning/datasets/SAR1/GHDDI

>  <s_m_Source_File>  (459) 
3C-like_protease_GHDDI_ligprep.sdf

>  <i_m_Source_File_Index>  (459) 
717

>  <s_m_subgroup_title>  (459) 
3C-like_protease_GHDDI_ligprep

>  <s_m_subgroupid>  (459) 
3C-like_protease_GHDDI_ligprep

>  <b_m_subgroup_collapsed>  (459) 
0

$$$$
13995
     RDKit          2D

 40 43  0  0  1  0  0  0  0  0999 V2000
    2.2214   -2.5052    0.0000 O   0  0  0  0  0  0  0  0  0  0  0  0
    1.7100   -1.0951    0.0000 C   0  0  0  0  0  0  0  0  0  0  0  0
    2.6754    0.0530    0.0000 N   0  0  0  0  0  0  0  0  0  0  0  0
    4.1523   -0.2091    0.0000 C   0  0  0  0  0  0  0  0  0  0  0  0
    5.1178    0.9389    0.0000 C   0  0  0  0  0  0  0  0  0  0  0  0
    4.6063    2.3490    0.0000 O   0  0  0  0  0  0  0  0  0  0  0  0
    5.5717    3.4970    0.0000 C   0  0  0  0  0  0  0  0  0  0  0  0
    7.0487    3.2349    0.0000 O   0  0  0  0  0  0  0  0  0  0  0  0
    5.0603    4.9071    0.0000 C   0  0  0  0  0  0  0  0  0  0  0  0
    6.0257    6.0551    0.0000 C   0  0  0  0  0  0  0  0  0  0  0  0
    5.5142    7.4652    0.0000 C   0  0  0  0  0  0  0  0  0  0  0  0
    4.0373    7.7273    0.0000 C   0  0  0  0  0  0  0  0  0  0  0  0
    3.0719    6.5793    0.0000 C   0  0  0  0  0  0  0  0  0  0  0  0
    3.5833    5.1692    0.0000 C   0  0  0  0  0  0  0  0  0  0  0  0
    4.6638   -1.6192    0.0000 C   0  0  0  0  0  0  0  0  0  0  0  0
    6.1407   -1.8813    0.0000 O   0  0  0  0  0  0  0  0  0  0  0  0
    3.6984   -2.7673    0.0000 N   0  0  0  0  0  0  0  0  0  0  0  0
    4.2098   -4.1774    0.0000 C   0  0  0  0  0  0  0  0  0  0  0  0
    3.2444   -5.3254    0.0000 C   0  0  0  0  0  0  0  0  0  0  0  0
    3.7559   -6.7355    0.0000 C   0  0  0  0  0  0  0  0  0  0  0  0
    5.2328   -6.9976    0.0000 C   0  0  0  0  0  0  0  0  0  0  0  0
    6.1983   -5.8496    0.0000 C   0  0  0  0  0  0  0  0  0  0  0  0
    5.6868   -4.4395    0.0000 C   0  0  0  0  0  0  0  0  0  0  0  0
    0.2330   -0.8330    0.0000 C   0  0  0  0  0  0  0  0  0  0  0  0
   -0.7324   -1.9810    0.0000 C   0  0  0  0  0  0  0  0  0  0  0  0
   -2.2093   -1.7189    0.0000 C   0  0  0  0  0  0  0  0  0  0  0  0
   -2.7208   -0.3088    0.0000 C   0  0  0  0  0  0  0  0  0  0  0  0
   -4.1977   -0.0467    0.0000 C   0  0  0  0  0  0  0  0  0  0  0  0
   -5.1632   -1.1947    0.0000 C   0  0  0  0  0  0  0  0  0  0  0  0
   -6.6401   -0.9326    0.0000 O   0  0  0  0  0  0  0  0  0  0  0  0
   -7.1516    0.4775    0.0000 C   0  0  0  0  0  0  0  0  0  0  0  0
   -6.1861    1.6255    0.0000 O   0  0  0  0  0  0  0  0  0  0  0  0
   -8.6285    0.7396    0.0000 C   0  0  0  0  0  0  0  0  0  0  0  0
   -9.1400    2.1497    0.0000 C   0  0  0  0  0  0  0  0  0  0  0  0
  -10.6169    2.4118    0.0000 C   0  0  0  0  0  0  0  0  0  0  0  0
  -11.5824    1.2638    0.0000 C   0  0  0  0  0  0  0  0  0  0  0  0
  -11.0709   -0.1463    0.0000 C   0  0  0  0  0  0  0  0  0  0  0  0
   -9.5939   -0.4084    0.0000 C   0  0  0  0  0  0  0  0  0  0  0  0
   -4.6517   -2.6048    0.0000 C   0  0  0  0  0  0  0  0  0  0  0  0
   -3.1748   -2.8669    0.0000 C   0  0  0  0  0  0  0  0  0  0  0  0
  1  2  2  0
  2  3  1  0
  2 24  1  0
  3  4  1  0
  4  5  1  0
  4 15  1  0
  5  6  1  0
  6  7  1  0
  7  8  2  0
  7  9  1  0
  9 10  2  0
  9 14  1  0
 10 11  1  0
 11 12  2  0
 12 13  1  0
 13 14  2  0
 15 16  2  0
 15 17  1  0
 17 18  1  0
 18 19  1  0
 18 23  1  0
 19 20  1  0
 20 21  1  0
 21 22  1  0
 22 23  1  0
 24 25  2  0
 25 26  1  0
 26 27  2  0
 26 40  1  0
 27 28  1  0
 28 29  2  0
 29 30  1  0
 29 39  1  0
 30 31  1  0
 31 32  2  0
 31 33  1  0
 33 34  2  0
 33 38  1  0
 34 35  1  0
 35 36  2  0
 36 37  1  0
 37 38  2  0
 39 40  2  0
M  END
>  <s_m_entry_id>  (460) 
1100

>  <s_m_entry_name>  (460) 
3C-like_protease_GHDDI_ligprep.719

>  <s_m_Source_Path>  (460) 
/home/jgilaber/drug_learning/drug_learning/datasets/SAR1/GHDDI

>  <s_m_Source_File>  (460) 
3C-like_protease_GHDDI_ligprep.sdf

>  <i_m_Source_File_Index>  (460) 
719

>  <s_m_subgroup_title>  (460) 
3C-like_protease_GHDDI_ligprep

>  <s_m_subgroupid>  (460) 
3C-like_protease_GHDDI_ligprep

>  <b_m_subgroup_collapsed>  (460) 
0

$$$$
13996
     RDKit          2D

 32 34  0  0  1  0  0  0  0  0999 V2000
  -10.5763   -1.2864    0.0000 O   0  0  0  0  0  0  0  0  0  0  0  0
   -9.1338   -0.8749    0.0000 C   0  0  0  0  0  0  0  0  0  0  0  0
   -8.7690    0.5800    0.0000 C   0  0  0  0  0  0  0  0  0  0  0  0
   -7.3265    0.9915    0.0000 C   0  0  0  0  0  0  0  0  0  0  0  0
   -6.2489   -0.0519    0.0000 C   0  0  0  0  0  0  0  0  0  0  0  0
   -4.8065    0.3596    0.0000 C   0  0  0  0  0  0  0  0  0  0  0  0
   -3.7289   -0.6839    0.0000 C   0  0  0  0  0  0  0  0  0  0  0  0
   -2.2864   -0.2724    0.0000 C   0  0  0  0  0  0  0  0  0  0  0  0
   -1.9216    1.1826    0.0000 O   0  0  0  0  0  0  0  0  0  0  0  0
   -1.2088   -1.3158    0.0000 N   0  0  0  0  0  0  0  0  0  0  0  0
    0.2336   -0.9043    0.0000 C   0  0  0  0  0  0  0  0  0  0  0  0
    1.3112   -1.9477    0.0000 C   0  0  0  0  0  0  0  0  0  0  0  0
    2.7537   -1.5362    0.0000 O   0  0  0  0  0  0  0  0  0  0  0  0
    3.8313   -2.5797    0.0000 C   0  0  0  0  0  0  0  0  0  0  0  0
    3.4664   -4.0346    0.0000 O   0  0  0  0  0  0  0  0  0  0  0  0
    5.2737   -2.1682    0.0000 C   0  0  0  0  0  0  0  0  0  0  0  0
    6.3513   -3.2116    0.0000 C   0  0  0  0  0  0  0  0  0  0  0  0
    7.7938   -2.8001    0.0000 C   0  0  0  0  0  0  0  0  0  0  0  0
    8.1586   -1.3451    0.0000 C   0  0  0  0  0  0  0  0  0  0  0  0
    7.0810   -0.3017    0.0000 C   0  0  0  0  0  0  0  0  0  0  0  0
    5.6386   -0.7132    0.0000 C   0  0  0  0  0  0  0  0  0  0  0  0
    0.5985    0.5507    0.0000 C   0  0  0  0  0  0  0  0  0  0  0  0
   -0.4791    1.5941    0.0000 O   0  0  0  0  0  0  0  0  0  0  0  0
    2.0409    0.9622    0.0000 N   0  0  0  0  0  0  0  0  0  0  0  0
    2.4058    2.4171    0.0000 C   0  0  0  0  0  0  0  0  0  0  0  0
    3.8482    2.8286    0.0000 C   0  0  0  0  0  0  0  0  0  0  0  0
    4.2131    4.2836    0.0000 C   0  0  0  0  0  0  0  0  0  0  0  0
    3.1355    5.3270    0.0000 C   0  0  0  0  0  0  0  0  0  0  0  0
    1.6930    4.9155    0.0000 C   0  0  0  0  0  0  0  0  0  0  0  0
    1.3282    3.4606    0.0000 C   0  0  0  0  0  0  0  0  0  0  0  0
   -6.6138   -1.5069    0.0000 C   0  0  0  0  0  0  0  0  0  0  0  0
   -8.0562   -1.9184    0.0000 C   0  0  0  0  0  0  0  0  0  0  0  0
  1  2  1  0
  2  3  2  0
  2 32  1  0
  3  4  1  0
  4  5  2  0
  5  6  1  0
  5 31  1  0
  6  7  2  0
  7  8  1  0
  8  9  2  0
  8 10  1  0
 10 11  1  0
 11 12  1  0
 11 22  1  0
 12 13  1  0
 13 14  1  0
 14 15  2  0
 14 16  1  0
 16 17  2  0
 16 21  1  0
 17 18  1  0
 18 19  2  0
 19 20  1  0
 20 21  2  0
 22 23  2  0
 22 24  1  0
 24 25  1  0
 25 26  1  0
 25 30  1  0
 26 27  1  0
 27 28  1  0
 28 29  1  0
 29 30  1  0
 31 32  2  0
M  END
>  <s_m_entry_id>  (461) 
1103

>  <s_m_entry_name>  (461) 
3C-like_protease_GHDDI_ligprep.722

>  <s_m_Source_Path>  (461) 
/home/jgilaber/drug_learning/drug_learning/datasets/SAR1/GHDDI

>  <s_m_Source_File>  (461) 
3C-like_protease_GHDDI_ligprep.sdf

>  <i_m_Source_File_Index>  (461) 
722

>  <s_m_subgroup_title>  (461) 
3C-like_protease_GHDDI_ligprep

>  <s_m_subgroupid>  (461) 
3C-like_protease_GHDDI_ligprep

>  <b_m_subgroup_collapsed>  (461) 
0

$$$$
13997
     RDKit          2D

 22 25  0  0  1  0  0  0  0  0999 V2000
   -5.5865   -0.4564    0.0000 C   0  0  0  0  0  0  0  0  0  0  0  0
   -4.3671    0.4171    0.0000 C   0  0  0  0  0  0  0  0  0  0  0  0
   -4.3571    1.9171    0.0000 C   0  0  0  0  0  0  0  0  0  0  0  0
   -2.9274    2.3710    0.0000 O   0  0  0  0  0  0  0  0  0  0  0  0
   -2.0539    1.1516    0.0000 C   0  0  0  0  0  0  0  0  0  0  0  0
   -2.9437   -0.0560    0.0000 C   0  0  0  0  0  0  0  0  0  0  0  0
   -2.3428   -1.4304    0.0000 C   0  0  0  0  0  0  0  0  0  0  0  0
   -3.2326   -2.6380    0.0000 O   0  0  0  0  0  0  0  0  0  0  0  0
   -0.8521   -1.5972    0.0000 C   0  0  0  0  0  0  0  0  0  0  0  0
   -0.2512   -2.9716    0.0000 O   0  0  0  0  0  0  0  0  0  0  0  0
    0.0377   -0.3896    0.0000 C   0  0  0  0  0  0  0  0  0  0  0  0
    1.5284   -0.5564    0.0000 C   0  0  0  0  0  0  0  0  0  0  0  0
    2.1293   -1.9308    0.0000 C   0  0  0  0  0  0  0  0  0  0  0  0
    3.6200   -2.0976    0.0000 C   0  0  0  0  0  0  0  0  0  0  0  0
    4.5098   -0.8900    0.0000 C   0  0  0  0  0  0  0  0  0  0  0  0
    3.9089    0.4844    0.0000 C   0  0  0  0  0  0  0  0  0  0  0  0
    3.8143    1.9814    0.0000 C   0  0  0  0  0  0  0  0  0  0  0  0
    5.3668    0.8375    0.0000 C   0  0  0  0  0  0  0  0  0  0  0  0
    2.4182    0.6512    0.0000 C   0  0  0  0  0  0  0  0  0  0  0  0
    1.8173    2.0256    0.0000 C   0  0  0  0  0  0  0  0  0  0  0  0
    0.3266    2.1924    0.0000 C   0  0  0  0  0  0  0  0  0  0  0  0
   -0.5632    0.9848    0.0000 C   0  0  0  0  0  0  0  0  0  0  0  0
  1  2  1  0
  2  3  1  0
  2  6  1  0
  3  4  1  0
  4  5  1  0
  5  6  2  0
  5 22  1  0
  6  7  1  0
  7  8  2  0
  7  9  1  0
  9 10  2  0
  9 11  1  0
 11 12  2  0
 11 22  1  0
 12 13  1  0
 12 19  1  0
 13 14  1  0
 14 15  1  0
 15 16  1  0
 16 17  1  0
 16 18  1  0
 16 19  1  0
 19 20  2  0
 20 21  1  0
 21 22  2  0
M  END
>  <s_m_entry_id>  (462) 
1105

>  <s_m_entry_name>  (462) 
3C-like_protease_GHDDI_ligprep.724

>  <s_m_Source_Path>  (462) 
/home/jgilaber/drug_learning/drug_learning/datasets/SAR1/GHDDI

>  <s_m_Source_File>  (462) 
3C-like_protease_GHDDI_ligprep.sdf

>  <i_m_Source_File_Index>  (462) 
724

>  <s_m_subgroup_title>  (462) 
3C-like_protease_GHDDI_ligprep

>  <s_m_subgroupid>  (462) 
3C-like_protease_GHDDI_ligprep

>  <b_m_subgroup_collapsed>  (462) 
0

$$$$
13998
     RDKit          2D

 73 76  0  0  1  0  0  0  0  0999 V2000
    0.1046    6.7118    0.0000 C   0  0  0  0  0  0  0  0  0  0  0  0
   -0.1401    5.2319    0.0000 C   0  0  0  0  0  0  0  0  0  0  0  0
   -1.5441    4.7039    0.0000 C   0  0  0  0  0  0  0  0  0  0  0  0
   -2.7034    5.6558    0.0000 C   0  0  0  0  0  0  0  0  0  0  0  0
   -1.7889    3.2240    0.0000 C   0  0  0  0  0  0  0  0  0  0  0  0
   -0.6296    2.2721    0.0000 N   0  0  0  0  0  0  0  0  0  0  0  0
   -0.8743    0.7922    0.0000 C   0  0  0  0  0  0  0  0  0  0  0  0
   -2.2783    0.2642    0.0000 O   0  0  0  0  0  0  0  0  0  0  0  0
    0.2850   -0.1597    0.0000 C   0  0  0  0  0  0  0  0  0  0  0  0
    0.0402   -1.6396    0.0000 C   0  0  0  0  0  0  0  0  0  0  0  0
    1.1995   -2.5915    0.0000 C   0  0  0  0  0  0  0  0  0  0  0  0
    0.9548   -4.0714    0.0000 C   0  0  0  0  0  0  0  0  0  0  0  0
    2.1141   -5.0233    0.0000 C   0  0  0  0  0  0  0  0  0  0  0  0
    3.5181   -4.4953    0.0000 C   0  0  0  0  0  0  0  0  0  0  0  0
    4.6773   -5.4472    0.0000 O   0  0  0  0  0  0  0  0  0  0  0  0
    3.7628   -3.0154    0.0000 C   0  0  0  0  0  0  0  0  0  0  0  0
    2.6035   -2.0635    0.0000 C   0  0  0  0  0  0  0  0  0  0  0  0
    1.6890    0.3683    0.0000 N   0  0  0  0  0  0  0  0  0  0  0  0
    2.8482   -0.5836    0.0000 C   0  0  0  0  0  0  0  0  0  0  0  0
    1.9337    1.8482    0.0000 C   0  0  0  0  0  0  0  0  0  0  0  0
    0.7744    2.8001    0.0000 O   0  0  0  0  0  0  0  0  0  0  0  0
    3.3377    2.3762    0.0000 C   0  0  0  0  0  0  0  0  0  0  0  0
    4.4969    1.4243    0.0000 N   0  0  0  0  0  0  0  0  0  0  0  0
    5.9009    1.9523    0.0000 C   0  0  0  0  0  0  0  0  0  0  0  0
    6.1457    3.4323    0.0000 O   0  0  0  0  0  0  0  0  0  0  0  0
    7.0602    1.0005    0.0000 C   0  0  0  0  0  0  0  0  0  0  0  0
    8.4642    1.5285    0.0000 C   0  0  0  0  0  0  0  0  0  0  0  0
    9.6235    0.5766    0.0000 C   0  0  0  0  0  0  0  0  0  0  0  0
   11.0275    1.1046    0.0000 C   0  0  0  0  0  0  0  0  0  0  0  0
   12.1867    0.1527    0.0000 N   0  0  0  0  0  0  0  0  0  0  0  0
   13.5907    0.6807    0.0000 C   0  0  0  0  0  0  0  0  0  0  0  0
   14.7500   -0.2712    0.0000 N   0  0  0  0  0  0  0  0  0  0  0  0
   13.8355    2.1606    0.0000 N   0  0  0  0  0  0  0  0  0  0  0  0
    6.8155   -0.4794    0.0000 N   0  0  0  0  0  0  0  0  0  0  0  0
    7.9748   -1.4313    0.0000 C   0  0  0  0  0  0  0  0  0  0  0  0
    9.3788   -0.9033    0.0000 O   0  0  0  0  0  0  0  0  0  0  0  0
    7.7300   -2.9112    0.0000 C   0  0  0  0  0  0  0  0  0  0  0  0
    8.8893   -3.8631    0.0000 N   0  0  0  0  0  0  0  0  0  0  0  0
    8.6446   -5.3430    0.0000 C   0  0  0  0  0  0  0  0  0  0  0  0
    3.5824    3.8561    0.0000 C   0  0  0  0  0  0  0  0  0  0  0  0
    4.9864    4.3841    0.0000 C   0  0  0  0  0  0  0  0  0  0  0  0
    2.4231    4.8080    0.0000 C   0  0  0  0  0  0  0  0  0  0  0  0
   -3.1928    2.6960    0.0000 C   0  0  0  0  0  0  0  0  0  0  0  0
   -3.4376    1.2161    0.0000 O   0  0  0  0  0  0  0  0  0  0  0  0
   -4.3521    3.6478    0.0000 N   0  0  0  0  0  0  0  0  0  0  0  0
   -5.7561    3.1198    0.0000 C   0  0  0  0  0  0  0  0  0  0  0  0
   -6.9154    4.0717    0.0000 C   0  0  0  0  0  0  0  0  0  0  0  0
   -6.6707    5.5516    0.0000 C   0  0  0  0  0  0  0  0  0  0  0  0
   -5.3296    6.2235    0.0000 C   0  0  0  0  0  0  0  0  0  0  0  0
   -5.5541    7.7066    0.0000 N   0  0  0  0  0  0  0  0  0  0  0  0
   -7.0340    7.9513    0.0000 C   0  0  0  0  0  0  0  0  0  0  0  0
   -7.7241    6.6195    0.0000 N   0  0  0  0  0  0  0  0  0  0  0  0
   -6.0008    1.6399    0.0000 C   0  0  0  0  0  0  0  0  0  0  0  0
   -4.8416    0.6880    0.0000 O   0  0  0  0  0  0  0  0  0  0  0  0
   -7.4048    1.1119    0.0000 N   0  0  0  0  0  0  0  0  0  0  0  0
   -8.6573    1.9374    0.0000 C   0  0  0  0  0  0  0  0  0  0  0  0
   -9.8294    1.0014    0.0000 C   0  0  0  0  0  0  0  0  0  0  0  0
   -9.3013   -0.4026    0.0000 C   0  0  0  0  0  0  0  0  0  0  0  0
   -7.8029   -0.3343    0.0000 C   0  0  0  0  0  0  0  0  0  0  0  0
   -6.8669   -1.5064    0.0000 C   0  0  0  0  0  0  0  0  0  0  0  0
   -5.3838   -1.2818    0.0000 O   0  0  0  0  0  0  0  0  0  0  0  0
   -7.4139   -2.9031    0.0000 N   0  0  0  0  0  0  0  0  0  0  0  0
   -6.4779   -4.0752    0.0000 C   0  0  0  0  0  0  0  0  0  0  0  0
   -7.0250   -5.4719    0.0000 C   0  0  0  0  0  0  0  0  0  0  0  0
   -6.0889   -6.6440    0.0000 C   0  0  0  0  0  0  0  0  0  0  0  0
   -4.6058   -6.4194    0.0000 C   0  0  0  0  0  0  0  0  0  0  0  0
   -3.6698   -7.5916    0.0000 C   0  0  0  0  0  0  0  0  0  0  0  0
   -4.2169   -8.9882    0.0000 C   0  0  0  0  0  0  0  0  0  0  0  0
   -5.7000   -9.2128    0.0000 C   0  0  0  0  0  0  0  0  0  0  0  0
   -6.6360   -8.0407    0.0000 C   0  0  0  0  0  0  0  0  0  0  0  0
   -4.9948   -3.8506    0.0000 C   0  0  0  0  0  0  0  0  0  0  0  0
   -4.4478   -2.4540    0.0000 O   0  0  0  0  0  0  0  0  0  0  0  0
   -4.0588   -5.0228    0.0000 O   0  0  0  0  0  0  0  0  0  0  0  0
  1  2  1  0
  2  3  1  0
  3  4  1  0
  3  5  1  0
  5  6  1  0
  5 43  1  0
  6  7  1  0
  7  8  2  0
  7  9  1  0
  9 10  1  0
  9 18  1  0
 10 11  1  0
 11 12  2  0
 11 17  1  0
 12 13  1  0
 13 14  2  0
 14 15  1  0
 14 16  1  0
 16 17  2  0
 18 19  1  0
 18 20  1  0
 20 21  2  0
 20 22  1  0
 22 23  1  0
 22 40  1  0
 23 24  1  0
 24 25  2  0
 24 26  1  0
 26 27  1  0
 26 34  1  0
 27 28  1  0
 28 29  1  0
 29 30  1  0
 30 31  2  3
 31 32  1  0
 31 33  1  0
 34 35  1  0
 35 36  2  0
 35 37  1  0
 37 38  1  0
 38 39  1  0
 40 41  1  0
 40 42  1  0
 43 44  2  0
 43 45  1  0
 45 46  1  0
 46 47  1  0
 46 53  1  0
 47 48  1  0
 48 49  2  0
 48 52  1  0
 49 50  1  0
 50 51  2  0
 51 52  1  0
 53 54  2  0
 53 55  1  0
 55 56  1  0
 55 59  1  0
 56 57  1  0
 57 58  1  0
 58 59  1  0
 59 60  1  0
 60 61  2  0
 60 62  1  0
 62 63  1  0
 63 64  1  0
 63 71  1  0
 64 65  1  0
 65 66  2  0
 65 70  1  0
 66 67  1  0
 67 68  2  0
 68 69  1  0
 69 70  2  0
 71 72  2  0
 71 73  1  0
M  CHG  3  30   1  38   1  73  -1
M  END
>  <s_m_entry_id>  (463) 
1107

>  <s_m_entry_name>  (463) 
3C-like_protease_GHDDI_ligprep.726

>  <s_m_Source_Path>  (463) 
/home/jgilaber/drug_learning/drug_learning/datasets/SAR1/GHDDI

>  <s_m_Source_File>  (463) 
3C-like_protease_GHDDI_ligprep.sdf

>  <i_m_Source_File_Index>  (463) 
726

>  <s_m_subgroup_title>  (463) 
3C-like_protease_GHDDI_ligprep

>  <s_m_subgroupid>  (463) 
3C-like_protease_GHDDI_ligprep

>  <b_m_subgroup_collapsed>  (463) 
0

$$$$
13999
     RDKit          2D

 41 46  0  0  1  0  0  0  0  0999 V2000
   -3.8637    5.6111    0.0000 C   0  0  0  0  0  0  0  0  0  0  0  0
   -3.7246    4.1175    0.0000 O   0  0  0  0  0  0  0  0  0  0  0  0
   -2.3616    3.4912    0.0000 C   0  0  0  0  0  0  0  0  0  0  0  0
   -1.1377    4.3584    0.0000 C   0  0  0  0  0  0  0  0  0  0  0  0
    0.2252    3.7321    0.0000 C   0  0  0  0  0  0  0  0  0  0  0  0
    0.3643    2.2385    0.0000 C   0  0  0  0  0  0  0  0  0  0  0  0
   -0.8596    1.3713    0.0000 C   0  0  0  0  0  0  0  0  0  0  0  0
   -2.2226    1.9977    0.0000 C   0  0  0  0  0  0  0  0  0  0  0  0
   -3.4465    1.1304    0.0000 C   0  0  0  0  0  0  0  0  0  0  0  0
   -4.8094    1.7568    0.0000 C   0  0  0  0  0  0  0  0  0  0  0  0
   -4.9485    3.2503    0.0000 O   0  0  0  0  0  0  0  0  0  0  0  0
   -6.0333    0.8895    0.0000 C   0  0  0  0  0  0  0  0  0  0  0  0
   -5.8943   -0.6040    0.0000 C   0  0  0  0  0  0  0  0  0  0  0  0
   -7.1182   -1.4712    0.0000 O   0  0  0  0  0  0  0  0  0  0  0  0
   -4.5313   -1.2303    0.0000 C   0  0  0  0  0  0  0  0  0  0  0  0
   -4.3922   -2.7239    0.0000 C   0  0  0  0  0  0  0  0  0  0  0  0
   -5.6161   -3.5911    0.0000 O   0  0  0  0  0  0  0  0  0  0  0  0
   -3.0292   -3.3502    0.0000 C   0  0  0  0  0  0  0  0  0  0  0  0
   -1.8053   -2.4830    0.0000 C   0  0  0  0  0  0  0  0  0  0  0  0
   -1.9444   -0.9894    0.0000 O   0  0  0  0  0  0  0  0  0  0  0  0
   -3.3074   -0.3631    0.0000 C   0  0  0  0  0  0  0  0  0  0  0  0
   -0.4423   -3.1093    0.0000 C   0  0  0  0  0  0  0  0  0  0  0  0
   -0.3033   -4.6028    0.0000 C   0  0  0  0  0  0  0  0  0  0  0  0
    1.0597   -5.2291    0.0000 C   0  0  0  0  0  0  0  0  0  0  0  0
    2.2836   -4.3619    0.0000 C   0  0  0  0  0  0  0  0  0  0  0  0
    3.6466   -4.9883    0.0000 O   0  0  0  0  0  0  0  0  0  0  0  0
    2.1445   -2.8684    0.0000 C   0  0  0  0  0  0  0  0  0  0  0  0
    0.7816   -2.2421    0.0000 C   0  0  0  0  0  0  0  0  0  0  0  0
    1.7273    1.6122    0.0000 C   0  0  0  0  0  0  0  0  0  0  0  0
    1.8664    0.1187    0.0000 C   0  0  0  0  0  0  0  0  0  0  0  0
    3.2294   -0.5076    0.0000 C   0  0  0  0  0  0  0  0  0  0  0  0
    3.3684   -2.0012    0.0000 O   0  0  0  0  0  0  0  0  0  0  0  0
    4.4533    0.3596    0.0000 C   0  0  0  0  0  0  0  0  0  0  0  0
    5.8162   -0.2667    0.0000 C   0  0  0  0  0  0  0  0  0  0  0  0
    5.9553   -1.7603    0.0000 O   0  0  0  0  0  0  0  0  0  0  0  0
    7.0402    0.6005    0.0000 C   0  0  0  0  0  0  0  0  0  0  0  0
    6.9011    2.0940    0.0000 C   0  0  0  0  0  0  0  0  0  0  0  0
    8.1250    2.9612    0.0000 O   0  0  0  0  0  0  0  0  0  0  0  0
    5.5381    2.7203    0.0000 C   0  0  0  0  0  0  0  0  0  0  0  0
    4.3142    1.8531    0.0000 C   0  0  0  0  0  0  0  0  0  0  0  0
    2.9512    2.4794    0.0000 O   0  0  0  0  0  0  0  0  0  0  0  0
  1  2  1  0
  2  3  1  0
  3  4  2  0
  3  8  1  0
  4  5  1  0
  5  6  2  0
  6  7  1  0
  6 29  1  0
  7  8  2  0
  8  9  1  0
  9 10  2  0
  9 21  1  0
 10 11  1  0
 10 12  1  0
 12 13  2  0
 13 14  1  0
 13 15  1  0
 15 16  1  0
 15 21  2  0
 16 17  2  0
 16 18  1  0
 18 19  2  0
 19 20  1  0
 19 22  1  0
 20 21  1  0
 22 23  2  0
 22 28  1  0
 23 24  1  0
 24 25  2  0
 25 26  1  0
 25 27  1  0
 27 28  2  0
 29 30  2  0
 29 41  1  0
 30 31  1  0
 31 32  2  0
 31 33  1  0
 33 34  2  0
 33 40  1  0
 34 35  1  0
 34 36  1  0
 36 37  2  0
 37 38  1  0
 37 39  1  0
 39 40  2  0
 40 41  1  0
M  END
>  <s_m_entry_id>  (464) 
1113

>  <s_m_entry_name>  (464) 
3C-like_protease_GHDDI_ligprep.732

>  <s_m_Source_Path>  (464) 
/home/jgilaber/drug_learning/drug_learning/datasets/SAR1/GHDDI

>  <s_m_Source_File>  (464) 
3C-like_protease_GHDDI_ligprep.sdf

>  <i_m_Source_File_Index>  (464) 
732

>  <s_m_subgroup_title>  (464) 
3C-like_protease_GHDDI_ligprep

>  <s_m_subgroupid>  (464) 
3C-like_protease_GHDDI_ligprep

>  <b_m_subgroup_collapsed>  (464) 
0

$$$$
14000
     RDKit          2D

 25 29  0  0  1  0  0  0  0  0999 V2000
   -4.9492    3.1922    0.0000 N   0  0  0  0  0  0  0  0  0  0  0  0
   -4.3464    1.8187    0.0000 C   0  0  0  0  0  0  0  0  0  0  0  0
   -5.2345    0.6099    0.0000 N   0  0  0  0  0  0  0  0  0  0  0  0
   -4.6316   -0.7637    0.0000 C   0  0  0  0  0  0  0  0  0  0  0  0
   -3.1407   -0.9283    0.0000 N   0  0  0  0  0  0  0  0  0  0  0  0
   -2.2526    0.2805    0.0000 C   0  0  0  0  0  0  0  0  0  0  0  0
   -2.8554    1.6540    0.0000 C   0  0  0  0  0  0  0  0  0  0  0  0
   -1.7354    2.6518    0.0000 N   0  0  0  0  0  0  0  0  0  0  0  0
   -0.4404    1.8950    0.0000 N   0  0  0  0  0  0  0  0  0  0  0  0
   -0.7600    0.4294    0.0000 N   0  0  0  0  0  0  0  0  0  0  0  0
    0.2378   -0.6906    0.0000 C   0  0  0  0  0  0  0  0  0  0  0  0
    1.7066   -0.3865    0.0000 C   0  0  0  0  0  0  0  0  0  0  0  0
    2.7044   -1.5065    0.0000 N   0  0  0  0  0  0  0  0  0  0  0  0
    4.1733   -1.2024    0.0000 C   0  0  0  0  0  0  0  0  0  0  0  0
    5.1711   -2.3224    0.0000 C   0  0  0  0  0  0  0  0  0  0  0  0
    6.6399   -2.0183    0.0000 C   0  0  0  0  0  0  0  0  0  0  0  0
    7.1110   -0.5942    0.0000 C   0  0  0  0  0  0  0  0  0  0  0  0
    6.1132    0.5258    0.0000 C   0  0  0  0  0  0  0  0  0  0  0  0
    4.6443    0.2217    0.0000 C   0  0  0  0  0  0  0  0  0  0  0  0
    3.6465    1.3417    0.0000 C   0  0  0  0  0  0  0  0  0  0  0  0
    4.1176    2.7658    0.0000 O   0  0  0  0  0  0  0  0  0  0  0  0
    2.1777    1.0376    0.0000 N   0  0  0  0  0  0  0  0  0  0  0  0
   -5.5197   -1.9725    0.0000 C   0  0  0  0  0  0  0  0  0  0  0  0
   -5.6844   -3.4635    0.0000 C   0  0  0  0  0  0  0  0  0  0  0  0
   -6.8932   -2.5754    0.0000 C   0  0  0  0  0  0  0  0  0  0  0  0
  1  2  1  0
  2  3  2  0
  2  7  1  0
  3  4  1  0
  4  5  2  0
  4 23  1  0
  5  6  1  0
  6  7  2  0
  6 10  1  0
  7  8  1  0
  8  9  2  0
  9 10  1  0
 10 11  1  0
 11 12  1  0
 12 13  2  0
 12 22  1  0
 13 14  1  0
 14 15  2  0
 14 19  1  0
 15 16  1  0
 16 17  2  0
 17 18  1  0
 18 19  2  0
 19 20  1  0
 20 21  2  0
 20 22  1  0
 23 24  1  0
 23 25  1  0
 24 25  1  0
M  END
>  <s_m_entry_id>  (465) 
1114

>  <s_m_entry_name>  (465) 
3C-like_protease_GHDDI_ligprep.733

>  <s_m_Source_Path>  (465) 
/home/jgilaber/drug_learning/drug_learning/datasets/SAR1/GHDDI

>  <s_m_Source_File>  (465) 
3C-like_protease_GHDDI_ligprep.sdf

>  <i_m_Source_File_Index>  (465) 
733

>  <s_m_subgroup_title>  (465) 
3C-like_protease_GHDDI_ligprep

>  <s_m_subgroupid>  (465) 
3C-like_protease_GHDDI_ligprep

>  <b_m_subgroup_collapsed>  (465) 
0

$$$$
14002
     RDKit          2D

 22 24  0  0  1  0  0  0  0  0999 V2000
   -2.1053    5.5730    0.0000 O   0  0  0  0  0  0  0  0  0  0  0  0
   -3.0911    4.4425    0.0000 C   0  0  0  0  0  0  0  0  0  0  0  0
   -2.6050    3.0235    0.0000 C   0  0  0  0  0  0  0  0  0  0  0  0
   -3.5908    1.8929    0.0000 C   0  0  0  0  0  0  0  0  0  0  0  0
   -3.1047    0.4739    0.0000 C   0  0  0  0  0  0  0  0  0  0  0  0
   -3.9670   -0.7535    0.0000 N   0  0  0  0  0  0  0  0  0  0  0  0
   -3.0661   -1.9528    0.0000 C   0  0  0  0  0  0  0  0  0  0  0  0
   -3.3546   -3.4248    0.0000 C   0  0  0  0  0  0  0  0  0  0  0  0
   -2.2241   -4.4107    0.0000 C   0  0  0  0  0  0  0  0  0  0  0  0
   -0.8051   -3.9245    0.0000 C   0  0  0  0  0  0  0  0  0  0  0  0
   -0.5165   -2.4526    0.0000 C   0  0  0  0  0  0  0  0  0  0  0  0
   -1.6471   -1.4667    0.0000 C   0  0  0  0  0  0  0  0  0  0  0  0
   -1.6709    0.0331    0.0000 N   0  0  0  0  0  0  0  0  0  0  0  0
   -0.4716    0.9340    0.0000 C   0  0  0  0  0  0  0  0  0  0  0  0
    0.9083    0.3457    0.0000 C   0  0  0  0  0  0  0  0  0  0  0  0
    2.1076    1.2466    0.0000 O   0  0  0  0  0  0  0  0  0  0  0  0
    3.4875    0.6583    0.0000 C   0  0  0  0  0  0  0  0  0  0  0  0
    3.6680   -0.8308    0.0000 C   0  0  0  0  0  0  0  0  0  0  0  0
    5.0478   -1.4190    0.0000 C   0  0  0  0  0  0  0  0  0  0  0  0
    6.2472   -0.5182    0.0000 C   0  0  0  0  0  0  0  0  0  0  0  0
    6.0667    0.9709    0.0000 C   0  0  0  0  0  0  0  0  0  0  0  0
    4.6868    1.5592    0.0000 C   0  0  0  0  0  0  0  0  0  0  0  0
  1  2  1  0
  2  3  1  0
  3  4  1  0
  4  5  1  0
  5  6  2  0
  5 13  1  0
  6  7  1  0
  7  8  2  0
  7 12  1  0
  8  9  1  0
  9 10  2  0
 10 11  1  0
 11 12  2  0
 12 13  1  0
 13 14  1  0
 14 15  1  0
 15 16  1  0
 16 17  1  0
 17 18  2  0
 17 22  1  0
 18 19  1  0
 19 20  2  0
 20 21  1  0
 21 22  2  0
M  END
>  <s_m_entry_id>  (466) 
1116

>  <s_m_entry_name>  (466) 
3C-like_protease_GHDDI_ligprep.735

>  <s_m_Source_Path>  (466) 
/home/jgilaber/drug_learning/drug_learning/datasets/SAR1/GHDDI

>  <s_m_Source_File>  (466) 
3C-like_protease_GHDDI_ligprep.sdf

>  <i_m_Source_File_Index>  (466) 
735

>  <s_m_subgroup_title>  (466) 
3C-like_protease_GHDDI_ligprep

>  <s_m_subgroupid>  (466) 
3C-like_protease_GHDDI_ligprep

>  <b_m_subgroup_collapsed>  (466) 
0

$$$$
14004
     RDKit          2D

 37 39  0  0  1  0  0  0  0  0999 V2000
    8.0927   -3.2961    0.0000 C   0  0  0  0  0  0  0  0  0  0  0  0
    8.4835   -1.8479    0.0000 O   0  0  0  0  0  0  0  0  0  0  0  0
    7.4246   -0.7854    0.0000 C   0  0  0  0  0  0  0  0  0  0  0  0
    5.9751   -1.1712    0.0000 C   0  0  0  0  0  0  0  0  0  0  0  0
    4.9163   -0.1087    0.0000 C   0  0  0  0  0  0  0  0  0  0  0  0
    3.4667   -0.4944    0.0000 C   0  0  0  0  0  0  0  0  0  0  0  0
    2.4079    0.5681    0.0000 C   0  0  0  0  0  0  0  0  0  0  0  0
    0.9583    0.1823    0.0000 C   0  0  0  0  0  0  0  0  0  0  0  0
    0.5676   -1.2659    0.0000 O   0  0  0  0  0  0  0  0  0  0  0  0
   -0.1005    1.2448    0.0000 N   0  0  0  0  0  0  0  0  0  0  0  0
   -1.5501    0.8591    0.0000 C   0  0  0  0  0  0  0  0  0  0  0  0
   -2.6089    1.9216    0.0000 C   0  0  0  0  0  0  0  0  0  0  0  0
   -4.0585    1.5359    0.0000 O   0  0  0  0  0  0  0  0  0  0  0  0
   -5.1173    2.5983    0.0000 C   0  0  0  0  0  0  0  0  0  0  0  0
   -4.7266    4.0466    0.0000 O   0  0  0  0  0  0  0  0  0  0  0  0
   -6.5668    2.2126    0.0000 C   0  0  0  0  0  0  0  0  0  0  0  0
   -7.6257    3.2751    0.0000 C   0  0  0  0  0  0  0  0  0  0  0  0
   -9.0752    2.8894    0.0000 C   0  0  0  0  0  0  0  0  0  0  0  0
   -9.4660    1.4412    0.0000 C   0  0  0  0  0  0  0  0  0  0  0  0
   -8.4071    0.3787    0.0000 C   0  0  0  0  0  0  0  0  0  0  0  0
   -6.9576    0.7644    0.0000 C   0  0  0  0  0  0  0  0  0  0  0  0
   -1.9408   -0.5891    0.0000 C   0  0  0  0  0  0  0  0  0  0  0  0
   -0.8820   -1.6516    0.0000 O   0  0  0  0  0  0  0  0  0  0  0  0
   -3.3904   -0.9748    0.0000 N   0  0  0  0  0  0  0  0  0  0  0  0
   -3.7811   -2.4231    0.0000 C   0  0  0  0  0  0  0  0  0  0  0  0
   -5.2306   -2.8088    0.0000 C   0  0  0  0  0  0  0  0  0  0  0  0
   -5.6214   -4.2570    0.0000 C   0  0  0  0  0  0  0  0  0  0  0  0
   -4.5625   -5.3195    0.0000 C   0  0  0  0  0  0  0  0  0  0  0  0
   -3.1130   -4.9338    0.0000 C   0  0  0  0  0  0  0  0  0  0  0  0
   -2.7223   -3.4855    0.0000 C   0  0  0  0  0  0  0  0  0  0  0  0
    5.3070    1.3395    0.0000 C   0  0  0  0  0  0  0  0  0  0  0  0
    6.7565    1.7253    0.0000 C   0  0  0  0  0  0  0  0  0  0  0  0
    7.1473    3.1735    0.0000 O   0  0  0  0  0  0  0  0  0  0  0  0
    8.5968    3.5592    0.0000 C   0  0  0  0  0  0  0  0  0  0  0  0
    7.8154    0.6628    0.0000 C   0  0  0  0  0  0  0  0  0  0  0  0
    9.2649    1.0485    0.0000 O   0  0  0  0  0  0  0  0  0  0  0  0
   10.3237   -0.0140    0.0000 C   0  0  0  0  0  0  0  0  0  0  0  0
  1  2  1  0
  2  3  1  0
  3  4  2  0
  3 35  1  0
  4  5  1  0
  5  6  1  0
  5 31  2  0
  6  7  2  0
  7  8  1  0
  8  9  2  0
  8 10  1  0
 10 11  1  0
 11 12  1  0
 11 22  1  0
 12 13  1  0
 13 14  1  0
 14 15  2  0
 14 16  1  0
 16 17  2  0
 16 21  1  0
 17 18  1  0
 18 19  2  0
 19 20  1  0
 20 21  2  0
 22 23  2  0
 22 24  1  0
 24 25  1  0
 25 26  1  0
 25 30  1  0
 26 27  1  0
 27 28  1  0
 28 29  1  0
 29 30  1  0
 31 32  1  0
 32 33  1  0
 32 35  2  0
 33 34  1  0
 35 36  1  0
 36 37  1  0
M  END
>  <s_m_entry_id>  (467) 
1119

>  <s_m_entry_name>  (467) 
3C-like_protease_GHDDI_ligprep.738

>  <s_m_Source_Path>  (467) 
/home/jgilaber/drug_learning/drug_learning/datasets/SAR1/GHDDI

>  <s_m_Source_File>  (467) 
3C-like_protease_GHDDI_ligprep.sdf

>  <i_m_Source_File_Index>  (467) 
738

>  <s_m_subgroup_title>  (467) 
3C-like_protease_GHDDI_ligprep

>  <s_m_subgroupid>  (467) 
3C-like_protease_GHDDI_ligprep

>  <b_m_subgroup_collapsed>  (467) 
0

$$$$
14005
     RDKit          2D

 21 23  0  0  1  0  0  0  0  0999 V2000
   -7.0612    0.7471    0.0000 C   0  0  0  0  0  0  0  0  0  0  0  0
   -5.5852    0.4800    0.0000 N   0  0  0  0  0  0  0  0  0  0  0  0
   -4.6159    1.6247    0.0000 C   0  0  0  0  0  0  0  0  0  0  0  0
   -3.1399    1.3577    0.0000 C   0  0  0  0  0  0  0  0  0  0  0  0
   -2.6331   -0.0541    0.0000 N   0  0  0  0  0  0  0  0  0  0  0  0
   -3.6024   -1.1989    0.0000 C   0  0  0  0  0  0  0  0  0  0  0  0
   -5.0785   -0.9318    0.0000 C   0  0  0  0  0  0  0  0  0  0  0  0
   -1.1571   -0.3212    0.0000 S   0  0  0  0  0  0  0  0  0  0  0  0
   -0.8900    1.1548    0.0000 O   0  0  0  0  0  0  0  0  0  0  0  0
   -1.4242   -1.7972    0.0000 O   0  0  0  0  0  0  0  0  0  0  0  0
    0.3189   -0.5883    0.0000 C   0  0  0  0  0  0  0  0  0  0  0  0
    0.8257   -2.0001    0.0000 C   0  0  0  0  0  0  0  0  0  0  0  0
    2.3017   -2.2672    0.0000 C   0  0  0  0  0  0  0  0  0  0  0  0
    3.2710   -1.1224    0.0000 C   0  0  0  0  0  0  0  0  0  0  0  0
    4.7703   -1.0768    0.0000 N   0  0  0  0  0  0  0  0  0  0  0  0
    5.1902    0.3633    0.0000 C   0  0  0  0  0  0  0  0  0  0  0  0
    6.6020    0.8700    0.0000 O   0  0  0  0  0  0  0  0  0  0  0  0
    3.9504    1.2076    0.0000 C   0  0  0  0  0  0  0  0  0  0  0  0
    3.9047    2.7069    0.0000 O   0  0  0  0  0  0  0  0  0  0  0  0
    2.7643    0.2894    0.0000 C   0  0  0  0  0  0  0  0  0  0  0  0
    1.2882    0.5565    0.0000 C   0  0  0  0  0  0  0  0  0  0  0  0
  1  2  1  0
  2  3  1  0
  2  7  1  0
  3  4  1  0
  4  5  1  0
  5  6  1  0
  5  8  1  0
  6  7  1  0
  8  9  2  0
  8 10  2  0
  8 11  1  0
 11 12  2  0
 11 21  1  0
 12 13  1  0
 13 14  2  0
 14 15  1  0
 14 20  1  0
 15 16  1  0
 16 17  2  0
 16 18  1  0
 18 19  2  0
 18 20  1  0
 20 21  2  0
M  END
>  <s_m_entry_id>  (468) 
1120

>  <s_m_entry_name>  (468) 
3C-like_protease_GHDDI_ligprep.739

>  <s_m_Source_Path>  (468) 
/home/jgilaber/drug_learning/drug_learning/datasets/SAR1/GHDDI

>  <s_m_Source_File>  (468) 
3C-like_protease_GHDDI_ligprep.sdf

>  <i_m_Source_File_Index>  (468) 
739

>  <s_m_subgroup_title>  (468) 
3C-like_protease_GHDDI_ligprep

>  <s_m_subgroupid>  (468) 
3C-like_protease_GHDDI_ligprep

>  <b_m_subgroup_collapsed>  (468) 
0

$$$$
14006
     RDKit          2D

 33 35  0  0  1  0  0  0  0  0999 V2000
    6.5504   -4.5987    0.0000 C   0  0  0  0  0  0  0  0  0  0  0  0
    7.1108   -3.2074    0.0000 O   0  0  0  0  0  0  0  0  0  0  0  0
    6.1861   -2.0263    0.0000 C   0  0  0  0  0  0  0  0  0  0  0  0
    4.7009   -2.2366    0.0000 C   0  0  0  0  0  0  0  0  0  0  0  0
    3.7762   -1.0556    0.0000 C   0  0  0  0  0  0  0  0  0  0  0  0
    2.2910   -1.2659    0.0000 C   0  0  0  0  0  0  0  0  0  0  0  0
    1.3663   -0.0848    0.0000 N   0  0  0  0  0  0  0  0  0  0  0  0
   -0.1189   -0.2951    0.0000 N   0  0  0  0  0  0  0  0  0  0  0  0
   -1.0436    0.8859    0.0000 C   0  0  0  0  0  0  0  0  0  0  0  0
   -0.4831    2.2773    0.0000 O   0  0  0  0  0  0  0  0  0  0  0  0
   -2.5288    0.6756    0.0000 C   0  0  0  0  0  0  0  0  0  0  0  0
   -3.4535    1.8567    0.0000 C   0  0  0  0  0  0  0  0  0  0  0  0
   -2.8931    3.2480    0.0000 C   0  0  0  0  0  0  0  0  0  0  0  0
   -1.4079    3.4583    0.0000 C   0  0  0  0  0  0  0  0  0  0  0  0
   -0.8474    4.8497    0.0000 C   0  0  0  0  0  0  0  0  0  0  0  0
   -1.7721    6.0307    0.0000 C   0  0  0  0  0  0  0  0  0  0  0  0
   -3.2573    5.8204    0.0000 C   0  0  0  0  0  0  0  0  0  0  0  0
   -3.8178    4.4291    0.0000 C   0  0  0  0  0  0  0  0  0  0  0  0
   -3.0893   -0.7158    0.0000 N   0  0  0  0  0  0  0  0  0  0  0  0
   -4.5744   -0.9261    0.0000 C   0  0  0  0  0  0  0  0  0  0  0  0
   -5.4992    0.2550    0.0000 O   0  0  0  0  0  0  0  0  0  0  0  0
   -5.1349   -2.3174    0.0000 C   0  0  0  0  0  0  0  0  0  0  0  0
   -6.6201   -2.5277    0.0000 C   0  0  0  0  0  0  0  0  0  0  0  0
   -7.1805   -3.9191    0.0000 C   0  0  0  0  0  0  0  0  0  0  0  0
   -6.2558   -5.1001    0.0000 C   0  0  0  0  0  0  0  0  0  0  0  0
   -4.7706   -4.8898    0.0000 C   0  0  0  0  0  0  0  0  0  0  0  0
   -4.2102   -3.4985    0.0000 C   0  0  0  0  0  0  0  0  0  0  0  0
    4.3367    0.3358    0.0000 C   0  0  0  0  0  0  0  0  0  0  0  0
    5.8218    0.5461    0.0000 C   0  0  0  0  0  0  0  0  0  0  0  0
    6.3823    1.9375    0.0000 O   0  0  0  0  0  0  0  0  0  0  0  0
    5.4576    3.1185    0.0000 C   0  0  0  0  0  0  0  0  0  0  0  0
    6.7466   -0.6350    0.0000 C   0  0  0  0  0  0  0  0  0  0  0  0
    8.2318   -0.4247    0.0000 O   0  0  0  0  0  0  0  0  0  0  0  0
  1  2  1  0
  2  3  1  0
  3  4  2  0
  3 32  1  0
  4  5  1  0
  5  6  1  0
  5 28  2  0
  6  7  2  0
  7  8  1  0
  8  9  1  0
  9 10  2  0
  9 11  1  0
 11 12  2  0
 11 19  1  0
 12 13  1  0
 13 14  2  0
 13 18  1  0
 14 15  1  0
 15 16  2  0
 16 17  1  0
 17 18  2  0
 19 20  1  0
 20 21  2  0
 20 22  1  0
 22 23  2  0
 22 27  1  0
 23 24  1  0
 24 25  2  0
 25 26  1  0
 26 27  2  0
 28 29  1  0
 29 30  1  0
 29 32  2  0
 30 31  1  0
 32 33  1  0
M  END
>  <s_m_entry_id>  (469) 
1122

>  <s_m_entry_name>  (469) 
3C-like_protease_GHDDI_ligprep.741

>  <s_m_Source_Path>  (469) 
/home/jgilaber/drug_learning/drug_learning/datasets/SAR1/GHDDI

>  <s_m_Source_File>  (469) 
3C-like_protease_GHDDI_ligprep.sdf

>  <i_m_Source_File_Index>  (469) 
741

>  <s_m_subgroup_title>  (469) 
3C-like_protease_GHDDI_ligprep

>  <s_m_subgroupid>  (469) 
3C-like_protease_GHDDI_ligprep

>  <b_m_subgroup_collapsed>  (469) 
0

$$$$
14008
     RDKit          2D

 42 44  0  0  1  0  0  0  0  0999 V2000
  -10.3997   -1.5489    0.0000 C   0  0  0  0  0  0  0  0  0  0  0  0
   -8.9626   -1.9785    0.0000 C   0  0  0  0  0  0  0  0  0  0  0  0
   -7.8719   -0.9487    0.0000 O   0  0  0  0  0  0  0  0  0  0  0  0
   -6.4347   -1.3784    0.0000 C   0  0  0  0  0  0  0  0  0  0  0  0
   -6.0882   -2.8378    0.0000 O   0  0  0  0  0  0  0  0  0  0  0  0
   -5.3441   -0.3486    0.0000 C   0  0  0  0  0  0  0  0  0  0  0  0
   -3.9069   -0.7782    0.0000 C   0  0  0  0  0  0  0  0  0  0  0  0
   -2.8163    0.2516    0.0000 C   0  0  0  0  0  0  0  0  0  0  0  0
   -3.1628    1.7110    0.0000 C   0  0  0  0  0  0  0  0  0  0  0  0
   -4.5999    2.1406    0.0000 C   0  0  0  0  0  0  0  0  0  0  0  0
   -5.7922    1.2305    0.0000 C   0  0  0  0  0  0  0  0  0  0  0  0
   -7.0263    2.0832    0.0000 C   0  0  0  0  0  0  0  0  0  0  0  0
   -6.5966    3.5204    0.0000 N   0  0  0  0  0  0  0  0  0  0  0  0
   -5.0971    3.5558    0.0000 C   0  0  0  0  0  0  0  0  0  0  0  0
   -4.2443    4.7899    0.0000 O   0  0  0  0  0  0  0  0  0  0  0  0
   -1.3791   -0.1781    0.0000 N   0  0  0  0  0  0  0  0  0  0  0  0
   -1.0326   -1.6375    0.0000 C   0  0  0  0  0  0  0  0  0  0  0  0
   -2.1233   -2.6673    0.0000 O   0  0  0  0  0  0  0  0  0  0  0  0
    0.4045   -2.0672    0.0000 C   0  0  0  0  0  0  0  0  0  0  0  0
    0.7510   -3.5266    0.0000 C   0  0  0  0  0  0  0  0  0  0  0  0
    2.1882   -3.9562    0.0000 C   0  0  0  0  0  0  0  0  0  0  0  0
    2.5347   -5.4157    0.0000 C   0  0  0  0  0  0  0  0  0  0  0  0
    3.9718   -5.8453    0.0000 C   0  0  0  0  0  0  0  0  0  0  0  0
    5.0625   -4.8155    0.0000 C   0  0  0  0  0  0  0  0  0  0  0  0
    4.7160   -3.3561    0.0000 C   0  0  0  0  0  0  0  0  0  0  0  0
    3.2788   -2.9265    0.0000 C   0  0  0  0  0  0  0  0  0  0  0  0
    1.4952   -1.0374    0.0000 N   0  0  0  0  0  0  0  0  0  0  0  0
    1.1487    0.4221    0.0000 C   0  0  0  0  0  0  0  0  0  0  0  0
   -0.2885    0.8517    0.0000 O   0  0  0  0  0  0  0  0  0  0  0  0
    2.2394    1.4518    0.0000 C   0  0  0  0  0  0  0  0  0  0  0  0
    3.6765    1.0222    0.0000 N   0  0  0  0  0  0  0  0  0  0  0  0
    4.7672    2.0520    0.0000 C   0  0  0  0  0  0  0  0  0  0  0  0
    4.4207    3.5114    0.0000 O   0  0  0  0  0  0  0  0  0  0  0  0
    6.2043    1.6223    0.0000 C   0  0  0  0  0  0  0  0  0  0  0  0
    7.3966    2.5325    0.0000 C   0  0  0  0  0  0  0  0  0  0  0  0
    8.6307    1.6798    0.0000 C   0  0  0  0  0  0  0  0  0  0  0  0
   10.0459    2.1769    0.0000 C   0  0  0  0  0  0  0  0  0  0  0  0
    8.2010    0.2426    0.0000 O   0  0  0  0  0  0  0  0  0  0  0  0
    6.7015    0.2071    0.0000 N   0  0  0  0  0  0  0  0  0  0  0  0
    1.8929    2.9113    0.0000 C   0  0  0  0  0  0  0  0  0  0  0  0
    2.9835    3.9411    0.0000 C   0  0  0  0  0  0  0  0  0  0  0  0
    0.4557    3.3409    0.0000 C   0  0  0  0  0  0  0  0  0  0  0  0
  1  2  1  0
  2  3  1  0
  3  4  1  0
  4  5  2  0
  4  6  1  0
  6  7  2  0
  7  8  1  0
  8  9  1  0
  8 16  1  0
  9 10  1  0
 10 11  1  0
 10 14  1  0
 11 12  1  0
 12 13  1  0
 13 14  1  0
 14 15  2  0
 16 17  1  0
 17 18  2  0
 17 19  1  0
 19 20  1  0
 19 27  1  0
 20 21  1  0
 21 22  2  0
 21 26  1  0
 22 23  1  0
 23 24  2  0
 24 25  1  0
 25 26  2  0
 27 28  1  0
 28 29  2  0
 28 30  1  0
 30 31  1  0
 30 40  1  0
 31 32  1  0
 32 33  2  0
 32 34  1  0
 34 35  1  0
 34 39  2  0
 35 36  2  0
 36 37  1  0
 36 38  1  0
 38 39  1  0
 40 41  1  0
 40 42  1  0
M  END
>  <s_m_entry_id>  (470) 
1124

>  <s_m_entry_name>  (470) 
3C-like_protease_GHDDI_ligprep.743

>  <s_m_Source_Path>  (470) 
/home/jgilaber/drug_learning/drug_learning/datasets/SAR1/GHDDI

>  <s_m_Source_File>  (470) 
3C-like_protease_GHDDI_ligprep.sdf

>  <i_m_Source_File_Index>  (470) 
743

>  <s_m_subgroup_title>  (470) 
3C-like_protease_GHDDI_ligprep

>  <s_m_subgroupid>  (470) 
3C-like_protease_GHDDI_ligprep

>  <b_m_subgroup_collapsed>  (470) 
0

$$$$
14009
     RDKit          2D

 35 37  0  0  1  0  0  0  0  0999 V2000
   -9.1159   -3.6908    0.0000 C   0  0  0  0  0  0  0  0  0  0  0  0
   -7.6707   -3.2889    0.0000 O   0  0  0  0  0  0  0  0  0  0  0  0
   -7.2962   -1.8364    0.0000 C   0  0  0  0  0  0  0  0  0  0  0  0
   -8.3668   -0.7858    0.0000 C   0  0  0  0  0  0  0  0  0  0  0  0
   -7.9923    0.6667    0.0000 C   0  0  0  0  0  0  0  0  0  0  0  0
   -9.0629    1.7173    0.0000 O   0  0  0  0  0  0  0  0  0  0  0  0
   -8.6883    3.1698    0.0000 C   0  0  0  0  0  0  0  0  0  0  0  0
   -6.5471    1.0686    0.0000 C   0  0  0  0  0  0  0  0  0  0  0  0
   -5.4765    0.0180    0.0000 C   0  0  0  0  0  0  0  0  0  0  0  0
   -4.0313    0.4199    0.0000 C   0  0  0  0  0  0  0  0  0  0  0  0
   -2.9607   -0.6307    0.0000 C   0  0  0  0  0  0  0  0  0  0  0  0
   -1.5155   -0.2288    0.0000 C   0  0  0  0  0  0  0  0  0  0  0  0
   -1.1410    1.2237    0.0000 O   0  0  0  0  0  0  0  0  0  0  0  0
   -0.4449   -1.2794    0.0000 N   0  0  0  0  0  0  0  0  0  0  0  0
    1.0003   -0.8775    0.0000 C   0  0  0  0  0  0  0  0  0  0  0  0
    2.0709   -1.9281    0.0000 C   0  0  0  0  0  0  0  0  0  0  0  0
    3.5160   -1.5263    0.0000 O   0  0  0  0  0  0  0  0  0  0  0  0
    4.5867   -2.5769    0.0000 C   0  0  0  0  0  0  0  0  0  0  0  0
    4.2121   -4.0293    0.0000 O   0  0  0  0  0  0  0  0  0  0  0  0
    6.0318   -2.1750    0.0000 C   0  0  0  0  0  0  0  0  0  0  0  0
    7.1025   -3.2256    0.0000 C   0  0  0  0  0  0  0  0  0  0  0  0
    8.5476   -2.8237    0.0000 C   0  0  0  0  0  0  0  0  0  0  0  0
    8.9221   -1.3712    0.0000 C   0  0  0  0  0  0  0  0  0  0  0  0
    7.8515   -0.3206    0.0000 C   0  0  0  0  0  0  0  0  0  0  0  0
    6.4064   -0.7225    0.0000 C   0  0  0  0  0  0  0  0  0  0  0  0
    1.3748    0.5749    0.0000 C   0  0  0  0  0  0  0  0  0  0  0  0
    0.3042    1.6255    0.0000 O   0  0  0  0  0  0  0  0  0  0  0  0
    2.8200    0.9768    0.0000 N   0  0  0  0  0  0  0  0  0  0  0  0
    3.1945    2.4293    0.0000 C   0  0  0  0  0  0  0  0  0  0  0  0
    4.6396    2.8312    0.0000 C   0  0  0  0  0  0  0  0  0  0  0  0
    5.0142    4.2837    0.0000 C   0  0  0  0  0  0  0  0  0  0  0  0
    3.9435    5.3343    0.0000 C   0  0  0  0  0  0  0  0  0  0  0  0
    2.4984    4.9324    0.0000 C   0  0  0  0  0  0  0  0  0  0  0  0
    2.1239    3.4799    0.0000 C   0  0  0  0  0  0  0  0  0  0  0  0
   -5.8510   -1.4345    0.0000 C   0  0  0  0  0  0  0  0  0  0  0  0
  1  2  1  0
  2  3  1  0
  3  4  2  0
  3 35  1  0
  4  5  1  0
  5  6  1  0
  5  8  2  0
  6  7  1  0
  8  9  1  0
  9 10  1  0
  9 35  2  0
 10 11  2  0
 11 12  1  0
 12 13  2  0
 12 14  1  0
 14 15  1  0
 15 16  1  0
 15 26  1  0
 16 17  1  0
 17 18  1  0
 18 19  2  0
 18 20  1  0
 20 21  2  0
 20 25  1  0
 21 22  1  0
 22 23  2  0
 23 24  1  0
 24 25  2  0
 26 27  2  0
 26 28  1  0
 28 29  1  0
 29 30  1  0
 29 34  1  0
 30 31  1  0
 31 32  1  0
 32 33  1  0
 33 34  1  0
M  END
>  <s_m_entry_id>  (471) 
1125

>  <s_m_entry_name>  (471) 
3C-like_protease_GHDDI_ligprep.744

>  <s_m_Source_Path>  (471) 
/home/jgilaber/drug_learning/drug_learning/datasets/SAR1/GHDDI

>  <s_m_Source_File>  (471) 
3C-like_protease_GHDDI_ligprep.sdf

>  <i_m_Source_File_Index>  (471) 
744

>  <s_m_subgroup_title>  (471) 
3C-like_protease_GHDDI_ligprep

>  <s_m_subgroupid>  (471) 
3C-like_protease_GHDDI_ligprep

>  <b_m_subgroup_collapsed>  (471) 
0

$$$$
14010
     RDKit          2D

 35 37  0  0  1  0  0  0  0  0999 V2000
   -9.2465   -3.7084    0.0000 C   0  0  0  0  0  0  0  0  0  0  0  0
   -7.8006   -3.3091    0.0000 O   0  0  0  0  0  0  0  0  0  0  0  0
   -7.4234   -1.8573    0.0000 C   0  0  0  0  0  0  0  0  0  0  0  0
   -8.4921   -0.8048    0.0000 C   0  0  0  0  0  0  0  0  0  0  0  0
   -8.1150    0.6470    0.0000 C   0  0  0  0  0  0  0  0  0  0  0  0
   -6.6691    1.0463    0.0000 C   0  0  0  0  0  0  0  0  0  0  0  0
   -6.2919    2.4981    0.0000 O   0  0  0  0  0  0  0  0  0  0  0  0
   -7.3606    3.5506    0.0000 C   0  0  0  0  0  0  0  0  0  0  0  0
   -5.6004   -0.0063    0.0000 C   0  0  0  0  0  0  0  0  0  0  0  0
   -4.1545    0.3930    0.0000 C   0  0  0  0  0  0  0  0  0  0  0  0
   -3.0858   -0.6596    0.0000 C   0  0  0  0  0  0  0  0  0  0  0  0
   -1.6399   -0.2603    0.0000 C   0  0  0  0  0  0  0  0  0  0  0  0
   -1.2627    1.1915    0.0000 O   0  0  0  0  0  0  0  0  0  0  0  0
   -0.5712   -1.3128    0.0000 N   0  0  0  0  0  0  0  0  0  0  0  0
    0.8747   -0.9136    0.0000 C   0  0  0  0  0  0  0  0  0  0  0  0
    1.9434   -1.9661    0.0000 C   0  0  0  0  0  0  0  0  0  0  0  0
    3.3893   -1.5669    0.0000 O   0  0  0  0  0  0  0  0  0  0  0  0
    4.4580   -2.6194    0.0000 C   0  0  0  0  0  0  0  0  0  0  0  0
    4.0809   -4.0712    0.0000 O   0  0  0  0  0  0  0  0  0  0  0  0
    5.9039   -2.2202    0.0000 C   0  0  0  0  0  0  0  0  0  0  0  0
    6.9726   -3.2727    0.0000 C   0  0  0  0  0  0  0  0  0  0  0  0
    8.4185   -2.8735    0.0000 C   0  0  0  0  0  0  0  0  0  0  0  0
    8.7957   -1.4217    0.0000 C   0  0  0  0  0  0  0  0  0  0  0  0
    7.7270   -0.3691    0.0000 C   0  0  0  0  0  0  0  0  0  0  0  0
    6.2811   -0.7684    0.0000 C   0  0  0  0  0  0  0  0  0  0  0  0
    1.2519    0.5382    0.0000 C   0  0  0  0  0  0  0  0  0  0  0  0
    0.1832    1.5908    0.0000 O   0  0  0  0  0  0  0  0  0  0  0  0
    2.6978    0.9375    0.0000 N   0  0  0  0  0  0  0  0  0  0  0  0
    3.0750    2.3893    0.0000 C   0  0  0  0  0  0  0  0  0  0  0  0
    4.5209    2.7885    0.0000 C   0  0  0  0  0  0  0  0  0  0  0  0
    4.8980    4.2403    0.0000 C   0  0  0  0  0  0  0  0  0  0  0  0
    3.8293    5.2929    0.0000 C   0  0  0  0  0  0  0  0  0  0  0  0
    2.3834    4.8936    0.0000 C   0  0  0  0  0  0  0  0  0  0  0  0
    2.0063    3.4418    0.0000 C   0  0  0  0  0  0  0  0  0  0  0  0
   -5.9775   -1.4581    0.0000 C   0  0  0  0  0  0  0  0  0  0  0  0
  1  2  1  0
  2  3  1  0
  3  4  2  0
  3 35  1  0
  4  5  1  0
  5  6  2  0
  6  7  1  0
  6  9  1  0
  7  8  1  0
  9 10  1  0
  9 35  2  0
 10 11  2  0
 11 12  1  0
 12 13  2  0
 12 14  1  0
 14 15  1  0
 15 16  1  0
 15 26  1  0
 16 17  1  0
 17 18  1  0
 18 19  2  0
 18 20  1  0
 20 21  2  0
 20 25  1  0
 21 22  1  0
 22 23  2  0
 23 24  1  0
 24 25  2  0
 26 27  2  0
 26 28  1  0
 28 29  1  0
 29 30  1  0
 29 34  1  0
 30 31  1  0
 31 32  1  0
 32 33  1  0
 33 34  1  0
M  END
>  <s_m_entry_id>  (472) 
1126

>  <s_m_entry_name>  (472) 
3C-like_protease_GHDDI_ligprep.745

>  <s_m_Source_Path>  (472) 
/home/jgilaber/drug_learning/drug_learning/datasets/SAR1/GHDDI

>  <s_m_Source_File>  (472) 
3C-like_protease_GHDDI_ligprep.sdf

>  <i_m_Source_File_Index>  (472) 
745

>  <s_m_subgroup_title>  (472) 
3C-like_protease_GHDDI_ligprep

>  <s_m_subgroupid>  (472) 
3C-like_protease_GHDDI_ligprep

>  <b_m_subgroup_collapsed>  (472) 
0

$$$$
14011
     RDKit          2D

 32 36  0  0  1  0  0  0  0  0999 V2000
  -10.3218    0.4316    0.0000 C   0  0  0  0  0  0  0  0  0  0  0  0
   -8.8308    0.2681    0.0000 N   0  0  0  0  0  0  0  0  0  0  0  0
   -7.9436    1.4776    0.0000 C   0  0  0  0  0  0  0  0  0  0  0  0
   -6.4525    1.3141    0.0000 C   0  0  0  0  0  0  0  0  0  0  0  0
   -5.8486   -0.0590    0.0000 N   0  0  0  0  0  0  0  0  0  0  0  0
   -6.7358   -1.2685    0.0000 C   0  0  0  0  0  0  0  0  0  0  0  0
   -8.2268   -1.1050    0.0000 C   0  0  0  0  0  0  0  0  0  0  0  0
   -4.3576   -0.2225    0.0000 S   0  0  0  0  0  0  0  0  0  0  0  0
   -4.1941    1.2686    0.0000 O   0  0  0  0  0  0  0  0  0  0  0  0
   -4.5211   -1.7135    0.0000 O   0  0  0  0  0  0  0  0  0  0  0  0
   -2.8665   -0.3860    0.0000 C   0  0  0  0  0  0  0  0  0  0  0  0
   -2.2626   -1.7591    0.0000 C   0  0  0  0  0  0  0  0  0  0  0  0
   -0.7715   -1.9226    0.0000 C   0  0  0  0  0  0  0  0  0  0  0  0
    0.1156   -0.7130    0.0000 C   0  0  0  0  0  0  0  0  0  0  0  0
    1.6081   -0.5630    0.0000 N   0  0  0  0  0  0  0  0  0  0  0  0
    2.6067   -1.6822    0.0000 C   0  0  0  0  0  0  0  0  0  0  0  0
    4.0754   -1.3770    0.0000 C   0  0  0  0  0  0  0  0  0  0  0  0
    5.0740   -2.4962    0.0000 C   0  0  0  0  0  0  0  0  0  0  0  0
    6.5426   -2.1909    0.0000 C   0  0  0  0  0  0  0  0  0  0  0  0
    7.0126   -0.7665    0.0000 C   0  0  0  0  0  0  0  0  0  0  0  0
    8.4812   -0.4612    0.0000 C   0  0  0  0  0  0  0  0  0  0  0  0
    8.9512    0.9633    0.0000 C   0  0  0  0  0  0  0  0  0  0  0  0
    7.9525    2.0825    0.0000 C   0  0  0  0  0  0  0  0  0  0  0  0
    6.4839    1.7772    0.0000 C   0  0  0  0  0  0  0  0  0  0  0  0
    6.0139    0.3528    0.0000 C   0  0  0  0  0  0  0  0  0  0  0  0
    4.5453    0.0475    0.0000 C   0  0  0  0  0  0  0  0  0  0  0  0
    1.9266    0.9028    0.0000 C   0  0  0  0  0  0  0  0  0  0  0  0
    3.2996    1.5067    0.0000 O   0  0  0  0  0  0  0  0  0  0  0  0
    0.6309    1.6587    0.0000 C   0  0  0  0  0  0  0  0  0  0  0  0
    0.4809    3.1511    0.0000 O   0  0  0  0  0  0  0  0  0  0  0  0
   -0.4883    0.6600    0.0000 C   0  0  0  0  0  0  0  0  0  0  0  0
   -1.9794    0.8235    0.0000 C   0  0  0  0  0  0  0  0  0  0  0  0
  1  2  1  0
  2  3  1  0
  2  7  1  0
  3  4  1  0
  4  5  1  0
  5  6  1  0
  5  8  1  0
  6  7  1  0
  8  9  2  0
  8 10  2  0
  8 11  1  0
 11 12  2  0
 11 32  1  0
 12 13  1  0
 13 14  2  0
 14 15  1  0
 14 31  1  0
 15 16  1  0
 15 27  1  0
 16 17  1  0
 17 18  2  0
 17 26  1  0
 18 19  1  0
 19 20  2  0
 20 21  1  0
 20 25  1  0
 21 22  2  0
 22 23  1  0
 23 24  2  0
 24 25  1  0
 25 26  2  0
 27 28  2  0
 27 29  1  0
 29 30  2  0
 29 31  1  0
 31 32  2  0
M  END
>  <s_m_entry_id>  (473) 
1127

>  <s_m_entry_name>  (473) 
3C-like_protease_GHDDI_ligprep.746

>  <s_m_Source_Path>  (473) 
/home/jgilaber/drug_learning/drug_learning/datasets/SAR1/GHDDI

>  <s_m_Source_File>  (473) 
3C-like_protease_GHDDI_ligprep.sdf

>  <i_m_Source_File_Index>  (473) 
746

>  <s_m_subgroup_title>  (473) 
3C-like_protease_GHDDI_ligprep

>  <s_m_subgroupid>  (473) 
3C-like_protease_GHDDI_ligprep

>  <b_m_subgroup_collapsed>  (473) 
0

$$$$
14012
     RDKit          2D

 23 25  0  0  1  0  0  0  0  0999 V2000
   -5.9178    0.2801    0.0000 C   0  0  0  0  0  0  0  0  0  0  0  0
   -4.8462   -0.7695    0.0000 C   0  0  0  0  0  0  0  0  0  0  0  0
   -5.2194   -2.2223    0.0000 C   0  0  0  0  0  0  0  0  0  0  0  0
   -3.4014   -0.3663    0.0000 C   0  0  0  0  0  0  0  0  0  0  0  0
   -2.3298   -1.4159    0.0000 C   0  0  0  0  0  0  0  0  0  0  0  0
   -0.8850   -1.0126    0.0000 C   0  0  0  0  0  0  0  0  0  0  0  0
    0.1866   -2.0622    0.0000 C   0  0  0  0  0  0  0  0  0  0  0  0
    1.6314   -1.6590    0.0000 C   0  0  0  0  0  0  0  0  0  0  0  0
    2.0045   -0.2061    0.0000 C   0  0  0  0  0  0  0  0  0  0  0  0
    3.4493    0.1971    0.0000 C   0  0  0  0  0  0  0  0  0  0  0  0
    4.9449    0.0819    0.0000 C   0  0  0  0  0  0  0  0  0  0  0  0
    3.8225    1.6499    0.0000 C   0  0  0  0  0  0  0  0  0  0  0  0
    2.7509    2.6995    0.0000 C   0  0  0  0  0  0  0  0  0  0  0  0
    1.3061    2.2963    0.0000 C   0  0  0  0  0  0  0  0  0  0  0  0
    0.9329    0.8435    0.0000 C   0  0  0  0  0  0  0  0  0  0  0  0
   -0.1387    1.8931    0.0000 C   0  0  0  0  0  0  0  0  0  0  0  0
   -0.5119    0.4402    0.0000 C   0  0  0  0  0  0  0  0  0  0  0  0
   -1.5835    1.4898    0.0000 C   0  0  0  0  0  0  0  0  0  0  0  0
   -3.0283    1.0866    0.0000 C   0  0  0  0  0  0  0  0  0  0  0  0
   -4.0999    2.1362    0.0000 O   0  0  0  0  0  0  0  0  0  0  0  0
    3.5955   -1.2958    0.0000 C   0  0  0  0  0  0  0  0  0  0  0  0
    2.3758   -2.1688    0.0000 O   0  0  0  0  0  0  0  0  0  0  0  0
    4.9615   -1.9155    0.0000 O   0  0  0  0  0  0  0  0  0  0  0  0
  1  2  1  0
  2  3  1  0
  2  4  1  0
  4  5  2  0
  4 19  1  0
  5  6  1  0
  6  7  1  0
  6 17  2  0
  7  8  1  0
  8  9  1  0
  9 10  1  0
  9 15  1  0
 10 11  1  0
 10 12  1  0
 10 21  1  0
 12 13  1  0
 13 14  1  0
 14 15  1  0
 15 16  1  0
 15 17  1  0
 17 18  1  0
 18 19  2  0
 19 20  1  0
 21 22  2  0
 21 23  1  0
M  CHG  1  23  -1
M  END
>  <s_m_entry_id>  (474) 
1129

>  <s_m_entry_name>  (474) 
3C-like_protease_GHDDI_ligprep.748

>  <s_m_Source_Path>  (474) 
/home/jgilaber/drug_learning/drug_learning/datasets/SAR1/GHDDI

>  <s_m_Source_File>  (474) 
3C-like_protease_GHDDI_ligprep.sdf

>  <i_m_Source_File_Index>  (474) 
748

>  <s_m_subgroup_title>  (474) 
3C-like_protease_GHDDI_ligprep

>  <s_m_subgroupid>  (474) 
3C-like_protease_GHDDI_ligprep

>  <b_m_subgroup_collapsed>  (474) 
0

$$$$
14014
     RDKit          2D

 29 31  0  0  1  0  0  0  0  0999 V2000
   -3.3419    5.9621    0.0000 C   0  0  0  0  0  0  0  0  0  0  0  0
   -3.9779    4.6036    0.0000 C   0  0  0  0  0  0  0  0  0  0  0  0
   -3.1194    3.3736    0.0000 C   0  0  0  0  0  0  0  0  0  0  0  0
   -3.7553    2.0151    0.0000 C   0  0  0  0  0  0  0  0  0  0  0  0
   -2.8968    0.7851    0.0000 C   0  0  0  0  0  0  0  0  0  0  0  0
   -1.4024    0.9135    0.0000 C   0  0  0  0  0  0  0  0  0  0  0  0
   -0.5439   -0.3165    0.0000 C   0  0  0  0  0  0  0  0  0  0  0  0
    0.9506   -0.1880    0.0000 C   0  0  0  0  0  0  0  0  0  0  0  0
    1.8091   -1.4181    0.0000 C   0  0  0  0  0  0  0  0  0  0  0  0
    3.3036   -1.2896    0.0000 C   0  0  0  0  0  0  0  0  0  0  0  0
    3.9396    0.0689    0.0000 C   0  0  0  0  0  0  0  0  0  0  0  0
    5.4341    0.1974    0.0000 C   0  0  0  0  0  0  0  0  0  0  0  0
    6.0701    1.5559    0.0000 C   0  0  0  0  0  0  0  0  0  0  0  0
    5.2116    2.7859    0.0000 C   0  0  0  0  0  0  0  0  0  0  0  0
    5.8476    4.1444    0.0000 O   0  0  0  0  0  0  0  0  0  0  0  0
    3.7171    2.6574    0.0000 C   0  0  0  0  0  0  0  0  0  0  0  0
    3.0811    1.2989    0.0000 C   0  0  0  0  0  0  0  0  0  0  0  0
    1.5866    1.1705    0.0000 O   0  0  0  0  0  0  0  0  0  0  0  0
   -1.1798   -1.6750    0.0000 C   0  0  0  0  0  0  0  0  0  0  0  0
   -0.3213   -2.9050    0.0000 C   0  0  0  0  0  0  0  0  0  0  0  0
   -0.9573   -4.2635    0.0000 C   0  0  0  0  0  0  0  0  0  0  0  0
   -0.0988   -5.4936    0.0000 C   0  0  0  0  0  0  0  0  0  0  0  0
   -0.7348   -6.8521    0.0000 C   0  0  0  0  0  0  0  0  0  0  0  0
    1.3957   -5.3651    0.0000 C   0  0  0  0  0  0  0  0  0  0  0  0
   -2.6743   -1.8035    0.0000 C   0  0  0  0  0  0  0  0  0  0  0  0
   -3.3103   -3.1620    0.0000 O   0  0  0  0  0  0  0  0  0  0  0  0
   -3.5328   -0.5734    0.0000 C   0  0  0  0  0  0  0  0  0  0  0  0
   -5.0273   -0.7019    0.0000 O   0  0  0  0  0  0  0  0  0  0  0  0
   -5.4724    4.4751    0.0000 C   0  0  0  0  0  0  0  0  0  0  0  0
  1  2  1  0
  2  3  2  3
  2 29  1  0
  3  4  1  0
  4  5  1  0
  5  6  2  0
  5 27  1  0
  6  7  1  0
  7  8  1  0
  7 19  2  0
  8  9  1  0
  8 18  1  0
  9 10  1  0
 10 11  1  0
 11 12  2  0
 11 17  1  0
 12 13  1  0
 13 14  2  0
 14 15  1  0
 14 16  1  0
 16 17  2  0
 17 18  1  0
 19 20  1  0
 19 25  1  0
 20 21  1  0
 21 22  2  3
 22 23  1  0
 22 24  1  0
 25 26  1  0
 25 27  2  0
 27 28  1  0
M  END
>  <s_m_entry_id>  (475) 
1131

>  <s_m_entry_name>  (475) 
3C-like_protease_GHDDI_ligprep.750

>  <s_m_Source_Path>  (475) 
/home/jgilaber/drug_learning/drug_learning/datasets/SAR1/GHDDI

>  <s_m_Source_File>  (475) 
3C-like_protease_GHDDI_ligprep.sdf

>  <i_m_Source_File_Index>  (475) 
750

>  <s_m_subgroup_title>  (475) 
3C-like_protease_GHDDI_ligprep

>  <s_m_subgroupid>  (475) 
3C-like_protease_GHDDI_ligprep

>  <b_m_subgroup_collapsed>  (475) 
0

$$$$
14015
     RDKit          2D

 33 35  0  0  1  0  0  0  0  0999 V2000
   -3.1130   -0.4847    0.0000 O   0  0  0  0  0  0  0  0  0  0  0  0
   -1.9724    0.4895    0.0000 C   0  0  0  0  0  0  0  0  0  0  0  0
   -0.5584   -0.0111    0.0000 N   0  0  0  0  0  0  0  0  0  0  0  0
   -0.2850   -1.4859    0.0000 C   0  0  0  0  0  0  0  0  0  0  0  0
    1.1290   -1.9866    0.0000 C   0  0  0  0  0  0  0  0  0  0  0  0
    2.2695   -1.0123    0.0000 O   0  0  0  0  0  0  0  0  0  0  0  0
    3.6835   -1.5129    0.0000 C   0  0  0  0  0  0  0  0  0  0  0  0
    3.9570   -2.9878    0.0000 O   0  0  0  0  0  0  0  0  0  0  0  0
    4.8241   -0.5387    0.0000 C   0  0  0  0  0  0  0  0  0  0  0  0
    6.2381   -1.0393    0.0000 C   0  0  0  0  0  0  0  0  0  0  0  0
    7.3786   -0.0650    0.0000 C   0  0  0  0  0  0  0  0  0  0  0  0
    8.7926   -0.5656    0.0000 C   0  0  0  0  0  0  0  0  0  0  0  0
    9.9332    0.4086    0.0000 C   0  0  0  0  0  0  0  0  0  0  0  0
    9.6597    1.8835    0.0000 C   0  0  0  0  0  0  0  0  0  0  0  0
    8.2457    2.3841    0.0000 C   0  0  0  0  0  0  0  0  0  0  0  0
    7.1052    1.4098    0.0000 C   0  0  0  0  0  0  0  0  0  0  0  0
   -1.4255   -2.4602    0.0000 C   0  0  0  0  0  0  0  0  0  0  0  0
   -1.1521   -3.9351    0.0000 O   0  0  0  0  0  0  0  0  0  0  0  0
   -2.8395   -1.9596    0.0000 N   0  0  0  0  0  0  0  0  0  0  0  0
   -3.9801   -2.9338    0.0000 C   0  0  0  0  0  0  0  0  0  0  0  0
   -5.3941   -2.4332    0.0000 C   0  0  0  0  0  0  0  0  0  0  0  0
   -6.5346   -3.4075    0.0000 C   0  0  0  0  0  0  0  0  0  0  0  0
   -6.2612   -4.8823    0.0000 C   0  0  0  0  0  0  0  0  0  0  0  0
   -4.8472   -5.3830    0.0000 C   0  0  0  0  0  0  0  0  0  0  0  0
   -3.7066   -4.4087    0.0000 C   0  0  0  0  0  0  0  0  0  0  0  0
   -2.2459    1.9644    0.0000 C   0  0  0  0  0  0  0  0  0  0  0  0
   -3.6599    2.4650    0.0000 C   0  0  0  0  0  0  0  0  0  0  0  0
   -3.9333    3.9399    0.0000 C   0  0  0  0  0  0  0  0  0  0  0  0
   -2.7928    4.9141    0.0000 C   0  0  0  0  0  0  0  0  0  0  0  0
   -3.0663    6.3890    0.0000 C   0  0  0  0  0  0  0  0  0  0  0  0
   -4.4803    6.8896    0.0000 C   0  0  0  0  0  0  0  0  0  0  0  0
   -5.6208    5.9153    0.0000 C   0  0  0  0  0  0  0  0  0  0  0  0
   -5.3473    4.4405    0.0000 C   0  0  0  0  0  0  0  0  0  0  0  0
  1  2  2  0
  2  3  1  0
  2 26  1  0
  3  4  1  0
  4  5  1  0
  4 17  1  0
  5  6  1  0
  6  7  1  0
  7  8  2  0
  7  9  1  0
  9 10  2  0
 10 11  1  0
 11 12  2  0
 11 16  1  0
 12 13  1  0
 13 14  2  0
 14 15  1  0
 15 16  2  0
 17 18  2  0
 17 19  1  0
 19 20  1  0
 20 21  1  0
 20 25  1  0
 21 22  1  0
 22 23  1  0
 23 24  1  0
 24 25  1  0
 26 27  2  0
 27 28  1  0
 28 29  2  0
 28 33  1  0
 29 30  1  0
 30 31  2  0
 31 32  1  0
 32 33  2  0
M  END
>  <s_m_entry_id>  (476) 
1132

>  <s_m_entry_name>  (476) 
3C-like_protease_GHDDI_ligprep.751

>  <s_m_Source_Path>  (476) 
/home/jgilaber/drug_learning/drug_learning/datasets/SAR1/GHDDI

>  <s_m_Source_File>  (476) 
3C-like_protease_GHDDI_ligprep.sdf

>  <i_m_Source_File_Index>  (476) 
751

>  <s_m_subgroup_title>  (476) 
3C-like_protease_GHDDI_ligprep

>  <s_m_subgroupid>  (476) 
3C-like_protease_GHDDI_ligprep

>  <b_m_subgroup_collapsed>  (476) 
0

$$$$
14016
     RDKit          2D

 44 46  0  0  1  0  0  0  0  0999 V2000
  -11.1009   -1.0563    0.0000 C   0  0  0  0  0  0  0  0  0  0  0  0
   -9.6911   -1.5686    0.0000 C   0  0  0  0  0  0  0  0  0  0  0  0
   -8.5425   -0.6038    0.0000 O   0  0  0  0  0  0  0  0  0  0  0  0
   -7.1327   -1.1160    0.0000 C   0  0  0  0  0  0  0  0  0  0  0  0
   -6.8714   -2.5931    0.0000 O   0  0  0  0  0  0  0  0  0  0  0  0
   -5.9842   -0.1512    0.0000 C   0  0  0  0  0  0  0  0  0  0  0  0
   -4.5743   -0.6634    0.0000 C   0  0  0  0  0  0  0  0  0  0  0  0
   -3.4258    0.3014    0.0000 C   0  0  0  0  0  0  0  0  0  0  0  0
   -3.6871    1.7784    0.0000 C   0  0  0  0  0  0  0  0  0  0  0  0
   -5.0969    2.2907    0.0000 C   0  0  0  0  0  0  0  0  0  0  0  0
   -6.3400    1.4512    0.0000 C   0  0  0  0  0  0  0  0  0  0  0  0
   -7.5225    2.3741    0.0000 C   0  0  0  0  0  0  0  0  0  0  0  0
   -7.0103    3.7839    0.0000 N   0  0  0  0  0  0  0  0  0  0  0  0
   -5.5112    3.7324    0.0000 C   0  0  0  0  0  0  0  0  0  0  0  0
   -4.5883    4.9149    0.0000 O   0  0  0  0  0  0  0  0  0  0  0  0
   -2.0160   -0.2109    0.0000 N   0  0  0  0  0  0  0  0  0  0  0  0
   -1.7547   -1.6879    0.0000 C   0  0  0  0  0  0  0  0  0  0  0  0
   -2.9032   -2.6528    0.0000 O   0  0  0  0  0  0  0  0  0  0  0  0
   -0.3449   -2.2002    0.0000 C   0  0  0  0  0  0  0  0  0  0  0  0
   -0.0836   -3.6773    0.0000 C   0  0  0  0  0  0  0  0  0  0  0  0
    1.3262   -4.1895    0.0000 C   0  0  0  0  0  0  0  0  0  0  0  0
    1.5875   -5.6666    0.0000 C   0  0  0  0  0  0  0  0  0  0  0  0
    2.9973   -6.1788    0.0000 C   0  0  0  0  0  0  0  0  0  0  0  0
    4.1459   -5.2140    0.0000 C   0  0  0  0  0  0  0  0  0  0  0  0
    3.8846   -3.7370    0.0000 C   0  0  0  0  0  0  0  0  0  0  0  0
    2.4748   -3.2247    0.0000 C   0  0  0  0  0  0  0  0  0  0  0  0
    0.8037   -1.2354    0.0000 N   0  0  0  0  0  0  0  0  0  0  0  0
    0.5424    0.2417    0.0000 C   0  0  0  0  0  0  0  0  0  0  0  0
   -0.8675    0.7539    0.0000 O   0  0  0  0  0  0  0  0  0  0  0  0
    1.6909    1.2065    0.0000 C   0  0  0  0  0  0  0  0  0  0  0  0
    3.1007    0.6942    0.0000 N   0  0  0  0  0  0  0  0  0  0  0  0
    4.2493    1.6591    0.0000 C   0  0  0  0  0  0  0  0  0  0  0  0
    3.9880    3.1361    0.0000 O   0  0  0  0  0  0  0  0  0  0  0  0
    5.6591    1.1468    0.0000 O   0  0  0  0  0  0  0  0  0  0  0  0
    6.8076    2.1116    0.0000 C   0  0  0  0  0  0  0  0  0  0  0  0
    8.2174    1.5994    0.0000 C   0  0  0  0  0  0  0  0  0  0  0  0
    8.4787    0.1223    0.0000 C   0  0  0  0  0  0  0  0  0  0  0  0
    9.8885   -0.3899    0.0000 C   0  0  0  0  0  0  0  0  0  0  0  0
   11.0371    0.5749    0.0000 C   0  0  0  0  0  0  0  0  0  0  0  0
   10.7758    2.0519    0.0000 C   0  0  0  0  0  0  0  0  0  0  0  0
    9.3660    2.5642    0.0000 C   0  0  0  0  0  0  0  0  0  0  0  0
    1.4296    2.6836    0.0000 C   0  0  0  0  0  0  0  0  0  0  0  0
    2.5782    3.6484    0.0000 C   0  0  0  0  0  0  0  0  0  0  0  0
    0.0198    3.1958    0.0000 C   0  0  0  0  0  0  0  0  0  0  0  0
  1  2  1  0
  2  3  1  0
  3  4  1  0
  4  5  2  0
  4  6  1  0
  6  7  2  0
  7  8  1  0
  8  9  1  0
  8 16  1  0
  9 10  1  0
 10 11  1  0
 10 14  1  0
 11 12  1  0
 12 13  1  0
 13 14  1  0
 14 15  2  0
 16 17  1  0
 17 18  2  0
 17 19  1  0
 19 20  1  0
 19 27  1  0
 20 21  1  0
 21 22  2  0
 21 26  1  0
 22 23  1  0
 23 24  2  0
 24 25  1  0
 25 26  2  0
 27 28  1  0
 28 29  2  0
 28 30  1  0
 30 31  1  0
 30 42  1  0
 31 32  1  0
 32 33  2  0
 32 34  1  0
 34 35  1  0
 35 36  1  0
 36 37  2  0
 36 41  1  0
 37 38  1  0
 38 39  2  0
 39 40  1  0
 40 41  2  0
 42 43  1  0
 42 44  1  0
M  END
>  <s_m_entry_id>  (477) 
1136

>  <s_m_entry_name>  (477) 
3C-like_protease_GHDDI_ligprep.755

>  <s_m_Source_Path>  (477) 
/home/jgilaber/drug_learning/drug_learning/datasets/SAR1/GHDDI

>  <s_m_Source_File>  (477) 
3C-like_protease_GHDDI_ligprep.sdf

>  <i_m_Source_File_Index>  (477) 
755

>  <s_m_subgroup_title>  (477) 
3C-like_protease_GHDDI_ligprep

>  <s_m_subgroupid>  (477) 
3C-like_protease_GHDDI_ligprep

>  <b_m_subgroup_collapsed>  (477) 
0

$$$$
14017
     RDKit          2D

 33 35  0  0  1  0  0  0  0  0999 V2000
   -9.8495   -2.9552    0.0000 C   0  0  0  0  0  0  0  0  0  0  0  0
   -8.3828   -2.6410    0.0000 O   0  0  0  0  0  0  0  0  0  0  0  0
   -7.9215   -1.2137    0.0000 C   0  0  0  0  0  0  0  0  0  0  0  0
   -8.9269   -0.1005    0.0000 C   0  0  0  0  0  0  0  0  0  0  0  0
   -8.4657    1.3268    0.0000 C   0  0  0  0  0  0  0  0  0  0  0  0
   -6.9989    1.6409    0.0000 C   0  0  0  0  0  0  0  0  0  0  0  0
   -5.9935    0.5278    0.0000 C   0  0  0  0  0  0  0  0  0  0  0  0
   -4.5268    0.8420    0.0000 C   0  0  0  0  0  0  0  0  0  0  0  0
   -3.5213   -0.2712    0.0000 C   0  0  0  0  0  0  0  0  0  0  0  0
   -2.0546    0.0430    0.0000 C   0  0  0  0  0  0  0  0  0  0  0  0
   -1.5933    1.4703    0.0000 O   0  0  0  0  0  0  0  0  0  0  0  0
   -1.0491   -1.0701    0.0000 N   0  0  0  0  0  0  0  0  0  0  0  0
    0.4176   -0.7560    0.0000 C   0  0  0  0  0  0  0  0  0  0  0  0
    1.4230   -1.8691    0.0000 C   0  0  0  0  0  0  0  0  0  0  0  0
    2.8898   -1.5549    0.0000 O   0  0  0  0  0  0  0  0  0  0  0  0
    3.8952   -2.6681    0.0000 C   0  0  0  0  0  0  0  0  0  0  0  0
    3.4339   -4.0954    0.0000 O   0  0  0  0  0  0  0  0  0  0  0  0
    5.3619   -2.3539    0.0000 C   0  0  0  0  0  0  0  0  0  0  0  0
    6.3674   -3.4670    0.0000 C   0  0  0  0  0  0  0  0  0  0  0  0
    7.8341   -3.1529    0.0000 C   0  0  0  0  0  0  0  0  0  0  0  0
    8.2954   -1.7255    0.0000 C   0  0  0  0  0  0  0  0  0  0  0  0
    7.2900   -0.6124    0.0000 C   0  0  0  0  0  0  0  0  0  0  0  0
    5.8232   -0.9266    0.0000 C   0  0  0  0  0  0  0  0  0  0  0  0
    0.8789    0.6713    0.0000 C   0  0  0  0  0  0  0  0  0  0  0  0
   -0.1266    1.7845    0.0000 O   0  0  0  0  0  0  0  0  0  0  0  0
    2.3456    0.9855    0.0000 N   0  0  0  0  0  0  0  0  0  0  0  0
    2.8069    2.4128    0.0000 C   0  0  0  0  0  0  0  0  0  0  0  0
    4.2736    2.7270    0.0000 C   0  0  0  0  0  0  0  0  0  0  0  0
    4.7349    4.1543    0.0000 C   0  0  0  0  0  0  0  0  0  0  0  0
    3.7295    5.2675    0.0000 C   0  0  0  0  0  0  0  0  0  0  0  0
    2.2627    4.9533    0.0000 C   0  0  0  0  0  0  0  0  0  0  0  0
    1.8014    3.5260    0.0000 C   0  0  0  0  0  0  0  0  0  0  0  0
   -6.4548   -0.8995    0.0000 C   0  0  0  0  0  0  0  0  0  0  0  0
  1  2  1  0
  2  3  1  0
  3  4  2  0
  3 33  1  0
  4  5  1  0
  5  6  2  0
  6  7  1  0
  7  8  1  0
  7 33  2  0
  8  9  2  0
  9 10  1  0
 10 11  2  0
 10 12  1  0
 12 13  1  0
 13 14  1  0
 13 24  1  0
 14 15  1  0
 15 16  1  0
 16 17  2  0
 16 18  1  0
 18 19  2  0
 18 23  1  0
 19 20  1  0
 20 21  2  0
 21 22  1  0
 22 23  2  0
 24 25  2  0
 24 26  1  0
 26 27  1  0
 27 28  1  0
 27 32  1  0
 28 29  1  0
 29 30  1  0
 30 31  1  0
 31 32  1  0
M  END
>  <s_m_entry_id>  (478) 
1137

>  <s_m_entry_name>  (478) 
3C-like_protease_GHDDI_ligprep.756

>  <s_m_Source_Path>  (478) 
/home/jgilaber/drug_learning/drug_learning/datasets/SAR1/GHDDI

>  <s_m_Source_File>  (478) 
3C-like_protease_GHDDI_ligprep.sdf

>  <i_m_Source_File_Index>  (478) 
756

>  <s_m_subgroup_title>  (478) 
3C-like_protease_GHDDI_ligprep

>  <s_m_subgroupid>  (478) 
3C-like_protease_GHDDI_ligprep

>  <b_m_subgroup_collapsed>  (478) 
0

$$$$
14018
     RDKit          2D

 33 35  0  0  1  0  0  0  0  0999 V2000
   -3.1130   -0.4847    0.0000 O   0  0  0  0  0  0  0  0  0  0  0  0
   -1.9724    0.4895    0.0000 C   0  0  0  0  0  0  0  0  0  0  0  0
   -0.5584   -0.0111    0.0000 N   0  0  0  0  0  0  0  0  0  0  0  0
   -0.2850   -1.4859    0.0000 C   0  0  0  0  0  0  0  0  0  0  0  0
    1.1290   -1.9866    0.0000 C   0  0  0  0  0  0  0  0  0  0  0  0
    2.2695   -1.0123    0.0000 O   0  0  0  0  0  0  0  0  0  0  0  0
    3.6835   -1.5129    0.0000 C   0  0  0  0  0  0  0  0  0  0  0  0
    3.9570   -2.9878    0.0000 O   0  0  0  0  0  0  0  0  0  0  0  0
    4.8241   -0.5387    0.0000 C   0  0  0  0  0  0  0  0  0  0  0  0
    6.2381   -1.0393    0.0000 C   0  0  0  0  0  0  0  0  0  0  0  0
    7.3786   -0.0650    0.0000 C   0  0  0  0  0  0  0  0  0  0  0  0
    8.7926   -0.5656    0.0000 C   0  0  0  0  0  0  0  0  0  0  0  0
    9.9332    0.4086    0.0000 C   0  0  0  0  0  0  0  0  0  0  0  0
    9.6597    1.8835    0.0000 C   0  0  0  0  0  0  0  0  0  0  0  0
    8.2457    2.3841    0.0000 C   0  0  0  0  0  0  0  0  0  0  0  0
    7.1052    1.4098    0.0000 C   0  0  0  0  0  0  0  0  0  0  0  0
   -1.4255   -2.4602    0.0000 C   0  0  0  0  0  0  0  0  0  0  0  0
   -1.1521   -3.9351    0.0000 O   0  0  0  0  0  0  0  0  0  0  0  0
   -2.8395   -1.9596    0.0000 N   0  0  0  0  0  0  0  0  0  0  0  0
   -3.9801   -2.9338    0.0000 C   0  0  0  0  0  0  0  0  0  0  0  0
   -5.3941   -2.4332    0.0000 C   0  0  0  0  0  0  0  0  0  0  0  0
   -6.5346   -3.4075    0.0000 C   0  0  0  0  0  0  0  0  0  0  0  0
   -6.2612   -4.8823    0.0000 C   0  0  0  0  0  0  0  0  0  0  0  0
   -4.8472   -5.3830    0.0000 C   0  0  0  0  0  0  0  0  0  0  0  0
   -3.7066   -4.4087    0.0000 C   0  0  0  0  0  0  0  0  0  0  0  0
   -2.2459    1.9644    0.0000 C   0  0  0  0  0  0  0  0  0  0  0  0
   -3.6599    2.4650    0.0000 C   0  0  0  0  0  0  0  0  0  0  0  0
   -3.9333    3.9399    0.0000 C   0  0  0  0  0  0  0  0  0  0  0  0
   -2.7928    4.9141    0.0000 C   0  0  0  0  0  0  0  0  0  0  0  0
   -3.0663    6.3890    0.0000 C   0  0  0  0  0  0  0  0  0  0  0  0
   -4.4803    6.8896    0.0000 C   0  0  0  0  0  0  0  0  0  0  0  0
   -5.6208    5.9153    0.0000 C   0  0  0  0  0  0  0  0  0  0  0  0
   -5.3473    4.4405    0.0000 C   0  0  0  0  0  0  0  0  0  0  0  0
  1  2  2  0
  2  3  1  0
  2 26  1  0
  3  4  1  0
  4  5  1  0
  4 17  1  0
  5  6  1  0
  6  7  1  0
  7  8  2  0
  7  9  1  0
  9 10  2  0
 10 11  1  0
 11 12  2  0
 11 16  1  0
 12 13  1  0
 13 14  2  0
 14 15  1  0
 15 16  2  0
 17 18  2  0
 17 19  1  0
 19 20  1  0
 20 21  1  0
 20 25  1  0
 21 22  1  0
 22 23  1  0
 23 24  1  0
 24 25  1  0
 26 27  2  0
 27 28  1  0
 28 29  2  0
 28 33  1  0
 29 30  1  0
 30 31  2  0
 31 32  1  0
 32 33  2  0
M  END
>  <s_m_entry_id>  (479) 
1138

>  <s_m_entry_name>  (479) 
3C-like_protease_GHDDI_ligprep.757

>  <s_m_Source_Path>  (479) 
/home/jgilaber/drug_learning/drug_learning/datasets/SAR1/GHDDI

>  <s_m_Source_File>  (479) 
3C-like_protease_GHDDI_ligprep.sdf

>  <i_m_Source_File_Index>  (479) 
757

>  <s_m_subgroup_title>  (479) 
3C-like_protease_GHDDI_ligprep

>  <s_m_subgroupid>  (479) 
3C-like_protease_GHDDI_ligprep

>  <b_m_subgroup_collapsed>  (479) 
0

$$$$
14019
     RDKit          2D

 25 26  0  0  1  0  0  0  0  0999 V2000
    7.1299   -3.2238    0.0000 C   0  0  0  0  0  0  0  0  0  0  0  0
    6.8633   -1.7477    0.0000 C   0  0  0  0  0  0  0  0  0  0  0  0
    5.4516   -1.2406    0.0000 C   0  0  0  0  0  0  0  0  0  0  0  0
    5.1849    0.2356    0.0000 C   0  0  0  0  0  0  0  0  0  0  0  0
    3.7732    0.7427    0.0000 C   0  0  0  0  0  0  0  0  0  0  0  0
    2.6282   -0.2263    0.0000 C   0  0  0  0  0  0  0  0  0  0  0  0
    1.2165    0.2808    0.0000 C   0  0  0  0  0  0  0  0  0  0  0  0
    0.0715   -0.6882    0.0000 C   0  0  0  0  0  0  0  0  0  0  0  0
    0.3382   -2.1643    0.0000 O   0  0  0  0  0  0  0  0  0  0  0  0
   -1.3401   -0.1811    0.0000 C   0  0  0  0  0  0  0  0  0  0  0  0
   -2.4851   -1.1501    0.0000 C   0  0  0  0  0  0  0  0  0  0  0  0
   -3.8968   -0.6430    0.0000 C   0  0  0  0  0  0  0  0  0  0  0  0
   -4.1635    0.8331    0.0000 C   0  0  0  0  0  0  0  0  0  0  0  0
   -5.5752    1.3402    0.0000 C   0  0  0  0  0  0  0  0  0  0  0  0
   -6.7202    0.3712    0.0000 C   0  0  0  0  0  0  0  0  0  0  0  0
   -8.1319    0.8783    0.0000 O   0  0  0  0  0  0  0  0  0  0  0  0
   -6.4535   -1.1049    0.0000 C   0  0  0  0  0  0  0  0  0  0  0  0
   -7.5985   -2.0739    0.0000 O   0  0  0  0  0  0  0  0  0  0  0  0
   -5.0418   -1.6120    0.0000 C   0  0  0  0  0  0  0  0  0  0  0  0
    0.9499    1.7569    0.0000 C   0  0  0  0  0  0  0  0  0  0  0  0
   -0.4618    2.2640    0.0000 O   0  0  0  0  0  0  0  0  0  0  0  0
    2.0949    2.7259    0.0000 C   0  0  0  0  0  0  0  0  0  0  0  0
    3.5066    2.2188    0.0000 C   0  0  0  0  0  0  0  0  0  0  0  0
    4.6516    3.1878    0.0000 O   0  0  0  0  0  0  0  0  0  0  0  0
    8.0083   -0.7787    0.0000 C   0  0  0  0  0  0  0  0  0  0  0  0
  1  2  1  0
  2  3  2  3
  2 25  1  0
  3  4  1  0
  4  5  1  0
  5  6  2  0
  5 23  1  0
  6  7  1  0
  7  8  1  0
  7 20  2  0
  8  9  2  0
  8 10  1  0
 10 11  2  0
 11 12  1  0
 12 13  2  0
 12 19  1  0
 13 14  1  0
 14 15  2  0
 15 16  1  0
 15 17  1  0
 17 18  1  0
 17 19  2  0
 20 21  1  0
 20 22  1  0
 22 23  2  0
 23 24  1  0
M  END
>  <s_m_entry_id>  (480) 
1139

>  <s_m_entry_name>  (480) 
3C-like_protease_GHDDI_ligprep.758

>  <s_m_Source_Path>  (480) 
/home/jgilaber/drug_learning/drug_learning/datasets/SAR1/GHDDI

>  <s_m_Source_File>  (480) 
3C-like_protease_GHDDI_ligprep.sdf

>  <i_m_Source_File_Index>  (480) 
758

>  <s_m_subgroup_title>  (480) 
3C-like_protease_GHDDI_ligprep

>  <s_m_subgroupid>  (480) 
3C-like_protease_GHDDI_ligprep

>  <b_m_subgroup_collapsed>  (480) 
0

$$$$
14020
     RDKit          2D

 34 39  0  0  1  0  0  0  0  0999 V2000
   -4.7182   -2.1384    0.0000 O   0  0  0  0  0  0  0  0  0  0  0  0
   -5.1141   -0.6916    0.0000 C   0  0  0  0  0  0  0  0  0  0  0  0
   -4.0590    0.3746    0.0000 C   0  0  0  0  0  0  0  0  0  0  0  0
   -2.6081   -0.0059    0.0000 S   0  0  0  0  0  0  0  0  0  0  0  0
   -1.5531    1.0604    0.0000 C   0  0  0  0  0  0  0  0  0  0  0  0
   -1.9490    2.5072    0.0000 N   0  0  0  0  0  0  0  0  0  0  0  0
   -0.8940    3.5734    0.0000 C   0  0  0  0  0  0  0  0  0  0  0  0
    0.5570    3.1929    0.0000 N   0  0  0  0  0  0  0  0  0  0  0  0
    0.9529    1.7461    0.0000 C   0  0  0  0  0  0  0  0  0  0  0  0
   -0.1022    0.6798    0.0000 C   0  0  0  0  0  0  0  0  0  0  0  0
    0.5859   -0.6531    0.0000 S   0  0  0  0  0  0  0  0  0  0  0  0
    2.0662   -0.4106    0.0000 C   0  0  0  0  0  0  0  0  0  0  0  0
    3.2369   -1.3484    0.0000 N   0  0  0  0  0  0  0  0  0  0  0  0
    4.6344   -0.8034    0.0000 C   0  0  0  0  0  0  0  0  0  0  0  0
    5.8051   -1.7412    0.0000 N   0  0  0  0  0  0  0  0  0  0  0  0
    5.5783   -3.2240    0.0000 C   0  0  0  0  0  0  0  0  0  0  0  0
    6.7490   -4.1617    0.0000 C   0  0  0  0  0  0  0  0  0  0  0  0
    8.1465   -3.6168    0.0000 O   0  0  0  0  0  0  0  0  0  0  0  0
    8.3733   -2.1340    0.0000 C   0  0  0  0  0  0  0  0  0  0  0  0
    7.2026   -1.1962    0.0000 C   0  0  0  0  0  0  0  0  0  0  0  0
    4.8612    0.6793    0.0000 C   0  0  0  0  0  0  0  0  0  0  0  0
    6.2587    1.2243    0.0000 C   0  0  0  0  0  0  0  0  0  0  0  0
    6.4855    2.7071    0.0000 C   0  0  0  0  0  0  0  0  0  0  0  0
    5.3148    3.6449    0.0000 C   0  0  0  0  0  0  0  0  0  0  0  0
    3.9173    3.0999    0.0000 C   0  0  0  0  0  0  0  0  0  0  0  0
    3.6905    1.6171    0.0000 C   0  0  0  0  0  0  0  0  0  0  0  0
    2.2930    1.0722    0.0000 C   0  0  0  0  0  0  0  0  0  0  0  0
   -6.5650   -0.3111    0.0000 N   0  0  0  0  0  0  0  0  0  0  0  0
   -7.6200   -1.3773    0.0000 C   0  0  0  0  0  0  0  0  0  0  0  0
   -9.0709   -0.9968    0.0000 C   0  0  0  0  0  0  0  0  0  0  0  0
  -10.2316   -1.9469    0.0000 O   0  0  0  0  0  0  0  0  0  0  0  0
  -11.4940   -1.1366    0.0000 C   0  0  0  0  0  0  0  0  0  0  0  0
  -11.1134    0.3143    0.0000 C   0  0  0  0  0  0  0  0  0  0  0  0
   -9.6159    0.4007    0.0000 C   0  0  0  0  0  0  0  0  0  0  0  0
  1  2  2  0
  2  3  1  0
  2 28  1  0
  3  4  1  0
  4  5  1  0
  5  6  2  0
  5 10  1  0
  6  7  1  0
  7  8  2  0
  8  9  1  0
  9 10  2  0
  9 27  1  0
 10 11  1  0
 11 12  1  0
 12 13  1  0
 12 27  2  0
 13 14  2  0
 14 15  1  0
 14 21  1  0
 15 16  1  0
 15 20  1  0
 16 17  1  0
 17 18  1  0
 18 19  1  0
 19 20  1  0
 21 22  1  0
 21 26  2  0
 22 23  1  0
 23 24  1  0
 24 25  1  0
 25 26  1  0
 26 27  1  0
 28 29  1  0
 29 30  1  0
 30 31  1  0
 30 34  2  0
 31 32  1  0
 32 33  2  0
 33 34  1  0
M  END
>  <s_m_entry_id>  (481) 
1142

>  <s_m_entry_name>  (481) 
3C-like_protease_GHDDI_ligprep.761

>  <s_m_Source_Path>  (481) 
/home/jgilaber/drug_learning/drug_learning/datasets/SAR1/GHDDI

>  <s_m_Source_File>  (481) 
3C-like_protease_GHDDI_ligprep.sdf

>  <i_m_Source_File_Index>  (481) 
761

>  <s_m_subgroup_title>  (481) 
3C-like_protease_GHDDI_ligprep

>  <s_m_subgroupid>  (481) 
3C-like_protease_GHDDI_ligprep

>  <b_m_subgroup_collapsed>  (481) 
0

$$$$
14021
     RDKit          2D

 28 31  0  0  1  0  0  0  0  0999 V2000
    0.2656   -4.9658    0.0000 C   0  0  0  0  0  0  0  0  0  0  0  0
    0.8647   -3.5907    0.0000 N   0  0  0  0  0  0  0  0  0  0  0  0
    2.3552   -3.4219    0.0000 C   0  0  0  0  0  0  0  0  0  0  0  0
    2.9543   -2.0468    0.0000 C   0  0  0  0  0  0  0  0  0  0  0  0
    4.4448   -1.8781    0.0000 C   0  0  0  0  0  0  0  0  0  0  0  0
    5.0439   -0.5029    0.0000 C   0  0  0  0  0  0  0  0  0  0  0  0
    4.1526    0.7035    0.0000 C   0  0  0  0  0  0  0  0  0  0  0  0
    4.7517    2.0787    0.0000 N   0  0  0  0  0  0  0  0  0  0  0  0
    3.8603    3.2851    0.0000 C   0  0  0  0  0  0  0  0  0  0  0  0
    4.4595    4.6603    0.0000 C   0  0  0  0  0  0  0  0  0  0  0  0
    2.3699    3.1164    0.0000 N   0  0  0  0  0  0  0  0  0  0  0  0
    1.7707    1.7412    0.0000 C   0  0  0  0  0  0  0  0  0  0  0  0
    0.2803    1.5725    0.0000 O   0  0  0  0  0  0  0  0  0  0  0  0
    2.6621    0.5348    0.0000 C   0  0  0  0  0  0  0  0  0  0  0  0
    2.0630   -0.8403    0.0000 C   0  0  0  0  0  0  0  0  0  0  0  0
   -0.0266   -2.3842    0.0000 C   0  0  0  0  0  0  0  0  0  0  0  0
    0.5725   -1.0091    0.0000 C   0  0  0  0  0  0  0  0  0  0  0  0
   -0.3189    0.1974    0.0000 C   0  0  0  0  0  0  0  0  0  0  0  0
   -1.8093    0.0286    0.0000 C   0  0  0  0  0  0  0  0  0  0  0  0
   -2.7007    1.2351    0.0000 C   0  0  0  0  0  0  0  0  0  0  0  0
   -4.1912    1.0663    0.0000 C   0  0  0  0  0  0  0  0  0  0  0  0
   -5.0825    2.2728    0.0000 C   0  0  0  0  0  0  0  0  0  0  0  0
   -6.5730    2.1040    0.0000 C   0  0  0  0  0  0  0  0  0  0  0  0
   -7.1721    0.7289    0.0000 C   0  0  0  0  0  0  0  0  0  0  0  0
   -6.2808   -0.4775    0.0000 C   0  0  0  0  0  0  0  0  0  0  0  0
   -4.7903   -0.3088    0.0000 C   0  0  0  0  0  0  0  0  0  0  0  0
   -2.4085   -1.3465    0.0000 C   0  0  0  0  0  0  0  0  0  0  0  0
   -1.5171   -2.5530    0.0000 C   0  0  0  0  0  0  0  0  0  0  0  0
  1  2  1  0
  2  3  1  0
  2 16  1  0
  3  4  1  0
  4 15  1  0
  4  5  2  0
  5  6  1  0
  6  7  2  0
  7 14  1  0
  7  8  1  0
  8  9  2  0
  9 10  1  0
  9 11  1  0
 11 12  1  0
 12 13  2  0
 12 14  1  0
 14 15  2  0
 16 17  2  0
 16 28  1  0
 17 18  1  0
 18 19  2  0
 19 20  1  0
 19 27  1  0
 20 21  1  0
 21 22  2  0
 21 26  1  0
 22 23  1  0
 23 24  2  0
 24 25  1  0
 25 26  2  0
 27 28  2  0
M  END
>  <s_m_entry_id>  (482) 
1143

>  <s_m_entry_name>  (482) 
3C-like_protease_GHDDI_ligprep.762

>  <s_m_Source_Path>  (482) 
/home/jgilaber/drug_learning/drug_learning/datasets/SAR1/GHDDI

>  <s_m_Source_File>  (482) 
3C-like_protease_GHDDI_ligprep.sdf

>  <i_m_Source_File_Index>  (482) 
762

>  <s_m_subgroup_title>  (482) 
3C-like_protease_GHDDI_ligprep

>  <s_m_subgroupid>  (482) 
3C-like_protease_GHDDI_ligprep

>  <b_m_subgroup_collapsed>  (482) 
0

$$$$
14023
     RDKit          2D

 31 34  0  0  1  0  0  0  0  0999 V2000
    1.5676   -5.6965    0.0000 C   0  0  0  0  0  0  0  0  0  0  0  0
    1.7714   -4.2104    0.0000 C   0  0  0  0  0  0  0  0  0  0  0  0
    0.5863   -3.2909    0.0000 C   0  0  0  0  0  0  0  0  0  0  0  0
    0.7901   -1.8048    0.0000 C   0  0  0  0  0  0  0  0  0  0  0  0
   -0.3950   -0.8852    0.0000 C   0  0  0  0  0  0  0  0  0  0  0  0
   -1.7839   -1.4518    0.0000 C   0  0  0  0  0  0  0  0  0  0  0  0
   -1.9877   -2.9378    0.0000 O   0  0  0  0  0  0  0  0  0  0  0  0
   -2.9690   -0.5322    0.0000 C   0  0  0  0  0  0  0  0  0  0  0  0
   -4.3579   -1.0987    0.0000 O   0  0  0  0  0  0  0  0  0  0  0  0
   -5.5429   -0.1792    0.0000 C   0  0  0  0  0  0  0  0  0  0  0  0
   -6.9711    0.2796    0.0000 C   0  0  0  0  0  0  0  0  0  0  0  0
   -6.2427   -1.5059    0.0000 C   0  0  0  0  0  0  0  0  0  0  0  0
   -5.3391    1.3069    0.0000 C   0  0  0  0  0  0  0  0  0  0  0  0
   -6.5242    2.2265    0.0000 O   0  0  0  0  0  0  0  0  0  0  0  0
   -3.9502    1.8734    0.0000 C   0  0  0  0  0  0  0  0  0  0  0  0
   -3.7464    3.3595    0.0000 O   0  0  0  0  0  0  0  0  0  0  0  0
   -2.7651    0.9539    0.0000 C   0  0  0  0  0  0  0  0  0  0  0  0
   -1.3762    1.5204    0.0000 C   0  0  0  0  0  0  0  0  0  0  0  0
   -0.1912    0.6009    0.0000 C   0  0  0  0  0  0  0  0  0  0  0  0
    1.1977    1.1674    0.0000 C   0  0  0  0  0  0  0  0  0  0  0  0
    1.4015    2.6535    0.0000 C   0  0  0  0  0  0  0  0  0  0  0  0
    2.7904    3.2200    0.0000 C   0  0  0  0  0  0  0  0  0  0  0  0
    3.9755    2.3005    0.0000 C   0  0  0  0  0  0  0  0  0  0  0  0
    5.3644    2.8670    0.0000 C   0  0  0  0  0  0  0  0  0  0  0  0
    6.5495    1.9475    0.0000 C   0  0  0  0  0  0  0  0  0  0  0  0
    6.3457    0.4614    0.0000 C   0  0  0  0  0  0  0  0  0  0  0  0
    7.5308   -0.4582    0.0000 O   0  0  0  0  0  0  0  0  0  0  0  0
    4.9568   -0.1052    0.0000 C   0  0  0  0  0  0  0  0  0  0  0  0
    3.7717    0.8144    0.0000 C   0  0  0  0  0  0  0  0  0  0  0  0
    2.3828    0.2479    0.0000 O   0  0  0  0  0  0  0  0  0  0  0  0
    3.1603   -3.6439    0.0000 C   0  0  0  0  0  0  0  0  0  0  0  0
  1  2  1  0
  2  3  2  3
  2 31  1  0
  3  4  1  0
  4  5  1  0
  5  6  2  0
  5 19  1  0
  6  7  1  0
  6  8  1  0
  8  9  1  0
  8 17  2  0
  9 10  1  0
 10 11  1  0
 10 12  1  0
 10 13  1  0
 13 14  1  0
 13 15  1  0
 15 16  1  0
 15 17  1  0
 17 18  1  0
 18 19  2  0
 19 20  1  0
 20 21  1  0
 20 30  1  0
 21 22  1  0
 22 23  1  0
 23 24  2  0
 23 29  1  0
 24 25  1  0
 25 26  2  0
 26 27  1  0
 26 28  1  0
 28 29  2  0
 29 30  1  0
M  END
>  <s_m_entry_id>  (483) 
1147

>  <s_m_entry_name>  (483) 
3C-like_protease_GHDDI_ligprep.766

>  <s_m_Source_Path>  (483) 
/home/jgilaber/drug_learning/drug_learning/datasets/SAR1/GHDDI

>  <s_m_Source_File>  (483) 
3C-like_protease_GHDDI_ligprep.sdf

>  <i_m_Source_File_Index>  (483) 
766

>  <s_m_subgroup_title>  (483) 
3C-like_protease_GHDDI_ligprep

>  <s_m_subgroupid>  (483) 
3C-like_protease_GHDDI_ligprep

>  <b_m_subgroup_collapsed>  (483) 
0

$$$$
14024
     RDKit          2D

 40 43  0  0  1  0  0  0  0  0999 V2000
    2.2214   -2.5052    0.0000 O   0  0  0  0  0  0  0  0  0  0  0  0
    1.7100   -1.0951    0.0000 C   0  0  0  0  0  0  0  0  0  0  0  0
    2.6754    0.0530    0.0000 N   0  0  0  0  0  0  0  0  0  0  0  0
    4.1523   -0.2091    0.0000 C   0  0  0  0  0  0  0  0  0  0  0  0
    5.1178    0.9389    0.0000 C   0  0  0  0  0  0  0  0  0  0  0  0
    4.6063    2.3490    0.0000 O   0  0  0  0  0  0  0  0  0  0  0  0
    5.5717    3.4970    0.0000 C   0  0  0  0  0  0  0  0  0  0  0  0
    7.0487    3.2349    0.0000 O   0  0  0  0  0  0  0  0  0  0  0  0
    5.0603    4.9071    0.0000 C   0  0  0  0  0  0  0  0  0  0  0  0
    6.0257    6.0551    0.0000 C   0  0  0  0  0  0  0  0  0  0  0  0
    5.5142    7.4652    0.0000 C   0  0  0  0  0  0  0  0  0  0  0  0
    4.0373    7.7273    0.0000 C   0  0  0  0  0  0  0  0  0  0  0  0
    3.0719    6.5793    0.0000 C   0  0  0  0  0  0  0  0  0  0  0  0
    3.5833    5.1692    0.0000 C   0  0  0  0  0  0  0  0  0  0  0  0
    4.6638   -1.6192    0.0000 C   0  0  0  0  0  0  0  0  0  0  0  0
    6.1407   -1.8813    0.0000 O   0  0  0  0  0  0  0  0  0  0  0  0
    3.6984   -2.7673    0.0000 N   0  0  0  0  0  0  0  0  0  0  0  0
    4.2098   -4.1774    0.0000 C   0  0  0  0  0  0  0  0  0  0  0  0
    3.2444   -5.3254    0.0000 C   0  0  0  0  0  0  0  0  0  0  0  0
    3.7559   -6.7355    0.0000 C   0  0  0  0  0  0  0  0  0  0  0  0
    5.2328   -6.9976    0.0000 C   0  0  0  0  0  0  0  0  0  0  0  0
    6.1983   -5.8496    0.0000 C   0  0  0  0  0  0  0  0  0  0  0  0
    5.6868   -4.4395    0.0000 C   0  0  0  0  0  0  0  0  0  0  0  0
    0.2330   -0.8330    0.0000 C   0  0  0  0  0  0  0  0  0  0  0  0
   -0.7324   -1.9810    0.0000 C   0  0  0  0  0  0  0  0  0  0  0  0
   -2.2093   -1.7189    0.0000 C   0  0  0  0  0  0  0  0  0  0  0  0
   -2.7208   -0.3088    0.0000 C   0  0  0  0  0  0  0  0  0  0  0  0
   -4.1977   -0.0467    0.0000 C   0  0  0  0  0  0  0  0  0  0  0  0
   -5.1632   -1.1947    0.0000 C   0  0  0  0  0  0  0  0  0  0  0  0
   -6.6401   -0.9326    0.0000 O   0  0  0  0  0  0  0  0  0  0  0  0
   -7.1516    0.4775    0.0000 C   0  0  0  0  0  0  0  0  0  0  0  0
   -6.1861    1.6255    0.0000 O   0  0  0  0  0  0  0  0  0  0  0  0
   -8.6285    0.7396    0.0000 C   0  0  0  0  0  0  0  0  0  0  0  0
   -9.1400    2.1497    0.0000 C   0  0  0  0  0  0  0  0  0  0  0  0
  -10.6169    2.4118    0.0000 C   0  0  0  0  0  0  0  0  0  0  0  0
  -11.5824    1.2638    0.0000 C   0  0  0  0  0  0  0  0  0  0  0  0
  -11.0709   -0.1463    0.0000 C   0  0  0  0  0  0  0  0  0  0  0  0
   -9.5939   -0.4084    0.0000 C   0  0  0  0  0  0  0  0  0  0  0  0
   -4.6517   -2.6048    0.0000 C   0  0  0  0  0  0  0  0  0  0  0  0
   -3.1748   -2.8669    0.0000 C   0  0  0  0  0  0  0  0  0  0  0  0
  1  2  2  0
  2  3  1  0
  2 24  1  0
  3  4  1  0
  4  5  1  0
  4 15  1  0
  5  6  1  0
  6  7  1  0
  7  8  2  0
  7  9  1  0
  9 10  2  0
  9 14  1  0
 10 11  1  0
 11 12  2  0
 12 13  1  0
 13 14  2  0
 15 16  2  0
 15 17  1  0
 17 18  1  0
 18 19  1  0
 18 23  1  0
 19 20  1  0
 20 21  1  0
 21 22  1  0
 22 23  1  0
 24 25  2  0
 25 26  1  0
 26 27  2  0
 26 40  1  0
 27 28  1  0
 28 29  2  0
 29 30  1  0
 29 39  1  0
 30 31  1  0
 31 32  2  0
 31 33  1  0
 33 34  2  0
 33 38  1  0
 34 35  1  0
 35 36  2  0
 36 37  1  0
 37 38  2  0
 39 40  2  0
M  END
>  <s_m_entry_id>  (484) 
1155

>  <s_m_entry_name>  (484) 
3C-like_protease_GHDDI_ligprep.774

>  <s_m_Source_Path>  (484) 
/home/jgilaber/drug_learning/drug_learning/datasets/SAR1/GHDDI

>  <s_m_Source_File>  (484) 
3C-like_protease_GHDDI_ligprep.sdf

>  <i_m_Source_File_Index>  (484) 
774

>  <s_m_subgroup_title>  (484) 
3C-like_protease_GHDDI_ligprep

>  <s_m_subgroupid>  (484) 
3C-like_protease_GHDDI_ligprep

>  <b_m_subgroup_collapsed>  (484) 
0

$$$$
14026
     RDKit          2D

 32 34  0  0  1  0  0  0  0  0999 V2000
  -10.5763   -1.2864    0.0000 O   0  0  0  0  0  0  0  0  0  0  0  0
   -9.1338   -0.8749    0.0000 C   0  0  0  0  0  0  0  0  0  0  0  0
   -8.7690    0.5800    0.0000 C   0  0  0  0  0  0  0  0  0  0  0  0
   -7.3265    0.9915    0.0000 C   0  0  0  0  0  0  0  0  0  0  0  0
   -6.2489   -0.0519    0.0000 C   0  0  0  0  0  0  0  0  0  0  0  0
   -4.8065    0.3596    0.0000 C   0  0  0  0  0  0  0  0  0  0  0  0
   -3.7289   -0.6839    0.0000 C   0  0  0  0  0  0  0  0  0  0  0  0
   -2.2864   -0.2724    0.0000 C   0  0  0  0  0  0  0  0  0  0  0  0
   -1.9216    1.1826    0.0000 O   0  0  0  0  0  0  0  0  0  0  0  0
   -1.2088   -1.3158    0.0000 N   0  0  0  0  0  0  0  0  0  0  0  0
    0.2336   -0.9043    0.0000 C   0  0  0  0  0  0  0  0  0  0  0  0
    1.3112   -1.9477    0.0000 C   0  0  0  0  0  0  0  0  0  0  0  0
    2.7537   -1.5362    0.0000 O   0  0  0  0  0  0  0  0  0  0  0  0
    3.8313   -2.5797    0.0000 C   0  0  0  0  0  0  0  0  0  0  0  0
    3.4664   -4.0346    0.0000 O   0  0  0  0  0  0  0  0  0  0  0  0
    5.2737   -2.1682    0.0000 C   0  0  0  0  0  0  0  0  0  0  0  0
    6.3513   -3.2116    0.0000 C   0  0  0  0  0  0  0  0  0  0  0  0
    7.7938   -2.8001    0.0000 C   0  0  0  0  0  0  0  0  0  0  0  0
    8.1586   -1.3451    0.0000 C   0  0  0  0  0  0  0  0  0  0  0  0
    7.0810   -0.3017    0.0000 C   0  0  0  0  0  0  0  0  0  0  0  0
    5.6386   -0.7132    0.0000 C   0  0  0  0  0  0  0  0  0  0  0  0
    0.5985    0.5507    0.0000 C   0  0  0  0  0  0  0  0  0  0  0  0
   -0.4791    1.5941    0.0000 O   0  0  0  0  0  0  0  0  0  0  0  0
    2.0409    0.9622    0.0000 N   0  0  0  0  0  0  0  0  0  0  0  0
    2.4058    2.4171    0.0000 C   0  0  0  0  0  0  0  0  0  0  0  0
    3.8482    2.8286    0.0000 C   0  0  0  0  0  0  0  0  0  0  0  0
    4.2131    4.2836    0.0000 C   0  0  0  0  0  0  0  0  0  0  0  0
    3.1355    5.3270    0.0000 C   0  0  0  0  0  0  0  0  0  0  0  0
    1.6930    4.9155    0.0000 C   0  0  0  0  0  0  0  0  0  0  0  0
    1.3282    3.4606    0.0000 C   0  0  0  0  0  0  0  0  0  0  0  0
   -6.6138   -1.5069    0.0000 C   0  0  0  0  0  0  0  0  0  0  0  0
   -8.0562   -1.9184    0.0000 C   0  0  0  0  0  0  0  0  0  0  0  0
  1  2  1  0
  2  3  2  0
  2 32  1  0
  3  4  1  0
  4  5  2  0
  5  6  1  0
  5 31  1  0
  6  7  2  0
  7  8  1  0
  8  9  2  0
  8 10  1  0
 10 11  1  0
 11 12  1  0
 11 22  1  0
 12 13  1  0
 13 14  1  0
 14 15  2  0
 14 16  1  0
 16 17  2  0
 16 21  1  0
 17 18  1  0
 18 19  2  0
 19 20  1  0
 20 21  2  0
 22 23  2  0
 22 24  1  0
 24 25  1  0
 25 26  1  0
 25 30  1  0
 26 27  1  0
 27 28  1  0
 28 29  1  0
 29 30  1  0
 31 32  2  0
M  END
>  <s_m_entry_id>  (485) 
1157

>  <s_m_entry_name>  (485) 
3C-like_protease_GHDDI_ligprep.776

>  <s_m_Source_Path>  (485) 
/home/jgilaber/drug_learning/drug_learning/datasets/SAR1/GHDDI

>  <s_m_Source_File>  (485) 
3C-like_protease_GHDDI_ligprep.sdf

>  <i_m_Source_File_Index>  (485) 
776

>  <s_m_subgroup_title>  (485) 
3C-like_protease_GHDDI_ligprep

>  <s_m_subgroupid>  (485) 
3C-like_protease_GHDDI_ligprep

>  <b_m_subgroup_collapsed>  (485) 
0

$$$$
14027
     RDKit          2D

 33 35  0  0  1  0  0  0  0  0999 V2000
   -9.8495   -2.9552    0.0000 C   0  0  0  0  0  0  0  0  0  0  0  0
   -8.3828   -2.6410    0.0000 O   0  0  0  0  0  0  0  0  0  0  0  0
   -7.9215   -1.2137    0.0000 C   0  0  0  0  0  0  0  0  0  0  0  0
   -8.9269   -0.1005    0.0000 C   0  0  0  0  0  0  0  0  0  0  0  0
   -8.4657    1.3268    0.0000 C   0  0  0  0  0  0  0  0  0  0  0  0
   -6.9989    1.6409    0.0000 C   0  0  0  0  0  0  0  0  0  0  0  0
   -5.9935    0.5278    0.0000 C   0  0  0  0  0  0  0  0  0  0  0  0
   -4.5268    0.8420    0.0000 C   0  0  0  0  0  0  0  0  0  0  0  0
   -3.5213   -0.2712    0.0000 C   0  0  0  0  0  0  0  0  0  0  0  0
   -2.0546    0.0430    0.0000 C   0  0  0  0  0  0  0  0  0  0  0  0
   -1.5933    1.4703    0.0000 O   0  0  0  0  0  0  0  0  0  0  0  0
   -1.0491   -1.0701    0.0000 N   0  0  0  0  0  0  0  0  0  0  0  0
    0.4176   -0.7560    0.0000 C   0  0  0  0  0  0  0  0  0  0  0  0
    1.4230   -1.8691    0.0000 C   0  0  0  0  0  0  0  0  0  0  0  0
    2.8898   -1.5549    0.0000 O   0  0  0  0  0  0  0  0  0  0  0  0
    3.8952   -2.6681    0.0000 C   0  0  0  0  0  0  0  0  0  0  0  0
    3.4339   -4.0954    0.0000 O   0  0  0  0  0  0  0  0  0  0  0  0
    5.3619   -2.3539    0.0000 C   0  0  0  0  0  0  0  0  0  0  0  0
    6.3674   -3.4670    0.0000 C   0  0  0  0  0  0  0  0  0  0  0  0
    7.8341   -3.1529    0.0000 C   0  0  0  0  0  0  0  0  0  0  0  0
    8.2954   -1.7255    0.0000 C   0  0  0  0  0  0  0  0  0  0  0  0
    7.2900   -0.6124    0.0000 C   0  0  0  0  0  0  0  0  0  0  0  0
    5.8232   -0.9266    0.0000 C   0  0  0  0  0  0  0  0  0  0  0  0
    0.8789    0.6713    0.0000 C   0  0  0  0  0  0  0  0  0  0  0  0
   -0.1266    1.7845    0.0000 O   0  0  0  0  0  0  0  0  0  0  0  0
    2.3456    0.9855    0.0000 N   0  0  0  0  0  0  0  0  0  0  0  0
    2.8069    2.4128    0.0000 C   0  0  0  0  0  0  0  0  0  0  0  0
    4.2736    2.7270    0.0000 C   0  0  0  0  0  0  0  0  0  0  0  0
    4.7349    4.1543    0.0000 C   0  0  0  0  0  0  0  0  0  0  0  0
    3.7295    5.2675    0.0000 C   0  0  0  0  0  0  0  0  0  0  0  0
    2.2627    4.9533    0.0000 C   0  0  0  0  0  0  0  0  0  0  0  0
    1.8014    3.5260    0.0000 C   0  0  0  0  0  0  0  0  0  0  0  0
   -6.4548   -0.8995    0.0000 C   0  0  0  0  0  0  0  0  0  0  0  0
  1  2  1  0
  2  3  1  0
  3  4  2  0
  3 33  1  0
  4  5  1  0
  5  6  2  0
  6  7  1  0
  7  8  1  0
  7 33  2  0
  8  9  2  0
  9 10  1  0
 10 11  2  0
 10 12  1  0
 12 13  1  0
 13 14  1  0
 13 24  1  0
 14 15  1  0
 15 16  1  0
 16 17  2  0
 16 18  1  0
 18 19  2  0
 18 23  1  0
 19 20  1  0
 20 21  2  0
 21 22  1  0
 22 23  2  0
 24 25  2  0
 24 26  1  0
 26 27  1  0
 27 28  1  0
 27 32  1  0
 28 29  1  0
 29 30  1  0
 30 31  1  0
 31 32  1  0
M  END
>  <s_m_entry_id>  (486) 
1159

>  <s_m_entry_name>  (486) 
3C-like_protease_GHDDI_ligprep.778

>  <s_m_Source_Path>  (486) 
/home/jgilaber/drug_learning/drug_learning/datasets/SAR1/GHDDI

>  <s_m_Source_File>  (486) 
3C-like_protease_GHDDI_ligprep.sdf

>  <i_m_Source_File_Index>  (486) 
778

>  <s_m_subgroup_title>  (486) 
3C-like_protease_GHDDI_ligprep

>  <s_m_subgroupid>  (486) 
3C-like_protease_GHDDI_ligprep

>  <b_m_subgroup_collapsed>  (486) 
0

$$$$
14028
     RDKit          2D

 34 37  0  0  1  0  0  0  0  0999 V2000
   -5.8379    4.7095    0.0000 C   0  0  0  0  0  0  0  0  0  0  0  0
   -5.5822    3.2314    0.0000 C   0  0  0  0  0  0  0  0  0  0  0  0
   -6.6276    2.1557    0.0000 N   0  0  0  0  0  0  0  0  0  0  0  0
   -5.9276    0.8291    0.0000 C   0  0  0  0  0  0  0  0  0  0  0  0
   -6.5894   -0.5170    0.0000 C   0  0  0  0  0  0  0  0  0  0  0  0
   -4.4495    1.0849    0.0000 C   0  0  0  0  0  0  0  0  0  0  0  0
   -4.2361    2.5696    0.0000 S   0  0  0  0  0  0  0  0  0  0  0  0
   -3.3738    0.0395    0.0000 C   0  0  0  0  0  0  0  0  0  0  0  0
   -3.7413   -1.4148    0.0000 O   0  0  0  0  0  0  0  0  0  0  0  0
   -1.9306    0.4483    0.0000 C   0  0  0  0  0  0  0  0  0  0  0  0
   -1.4131    1.8562    0.0000 C   0  0  0  0  0  0  0  0  0  0  0  0
   -2.2480    3.1025    0.0000 O   0  0  0  0  0  0  0  0  0  0  0  0
    0.0858    1.7991    0.0000 C   0  0  0  0  0  0  0  0  0  0  0  0
    1.0130    2.9782    0.0000 O   0  0  0  0  0  0  0  0  0  0  0  0
    0.4946    0.3559    0.0000 N   0  0  0  0  0  0  0  0  0  0  0  0
    1.9025   -0.1616    0.0000 C   0  0  0  0  0  0  0  0  0  0  0  0
    3.0547    0.7989    0.0000 C   0  0  0  0  0  0  0  0  0  0  0  0
    4.4626    0.2814    0.0000 C   0  0  0  0  0  0  0  0  0  0  0  0
    5.6147    1.2420    0.0000 N   0  0  0  0  0  0  0  0  0  0  0  0
    7.0226    0.7245    0.0000 C   0  0  0  0  0  0  0  0  0  0  0  0
    8.1747    1.6850    0.0000 C   0  0  0  0  0  0  0  0  0  0  0  0
    7.9189    3.1630    0.0000 O   0  0  0  0  0  0  0  0  0  0  0  0
    6.5110    3.6805    0.0000 C   0  0  0  0  0  0  0  0  0  0  0  0
    5.3589    2.7200    0.0000 C   0  0  0  0  0  0  0  0  0  0  0  0
   -0.7516   -0.4789    0.0000 C   0  0  0  0  0  0  0  0  0  0  0  0
   -0.8087   -1.9778    0.0000 C   0  0  0  0  0  0  0  0  0  0  0  0
   -2.1353   -2.6778    0.0000 C   0  0  0  0  0  0  0  0  0  0  0  0
   -2.1924   -4.1767    0.0000 C   0  0  0  0  0  0  0  0  0  0  0  0
   -0.9229   -4.9756    0.0000 C   0  0  0  0  0  0  0  0  0  0  0  0
    0.4037   -4.2756    0.0000 C   0  0  0  0  0  0  0  0  0  0  0  0
    0.4609   -2.7767    0.0000 C   0  0  0  0  0  0  0  0  0  0  0  0
    1.6733   -5.0746    0.0000 N   0  0  0  0  0  0  0  0  0  0  0  0
    2.9999   -4.3746    0.0000 O   0  0  0  0  0  0  0  0  0  0  0  0
    1.6162   -6.5735    0.0000 O   0  0  0  0  0  0  0  0  0  0  0  0
  1  2  1  0
  2  3  2  0
  2  7  1  0
  3  4  1  0
  4  5  1  0
  4  6  2  0
  6  7  1  0
  6  8  1  0
  8  9  2  0
  8 10  1  0
 10 11  2  0
 10 25  1  0
 11 12  1  0
 11 13  1  0
 13 14  2  0
 13 15  1  0
 15 16  1  0
 15 25  1  0
 16 17  1  0
 17 18  1  0
 18 19  1  0
 19 20  1  0
 19 24  1  0
 20 21  1  0
 21 22  1  0
 22 23  1  0
 23 24  1  0
 25 26  1  0
 26 27  2  0
 26 31  1  0
 27 28  1  0
 28 29  2  0
 29 30  1  0
 30 31  2  0
 30 32  1  0
 32 33  2  0
 32 34  1  0
M  CHG  4  12  -1  19   1  32   1  34  -1
M  END
>  <s_m_entry_id>  (487) 
1160

>  <s_m_entry_name>  (487) 
3C-like_protease_GHDDI_ligprep.779

>  <s_m_Source_Path>  (487) 
/home/jgilaber/drug_learning/drug_learning/datasets/SAR1/GHDDI

>  <s_m_Source_File>  (487) 
3C-like_protease_GHDDI_ligprep.sdf

>  <i_m_Source_File_Index>  (487) 
779

>  <s_m_subgroup_title>  (487) 
3C-like_protease_GHDDI_ligprep

>  <s_m_subgroupid>  (487) 
3C-like_protease_GHDDI_ligprep

>  <b_m_subgroup_collapsed>  (487) 
0

$$$$
14029
     RDKit          2D

 35 37  0  0  1  0  0  0  0  0999 V2000
   -7.0442   -1.9457    0.0000 C   0  0  0  0  0  0  0  0  0  0  0  0
   -6.6451   -0.4997    0.0000 C   0  0  0  0  0  0  0  0  0  0  0  0
   -7.6977    0.5689    0.0000 C   0  0  0  0  0  0  0  0  0  0  0  0
   -7.2985    2.0148    0.0000 C   0  0  0  0  0  0  0  0  0  0  0  0
   -5.8468    2.3921    0.0000 C   0  0  0  0  0  0  0  0  0  0  0  0
   -4.7941    1.3234    0.0000 C   0  0  0  0  0  0  0  0  0  0  0  0
   -5.1933   -0.1225    0.0000 C   0  0  0  0  0  0  0  0  0  0  0  0
   -4.1407   -1.1911    0.0000 C   0  0  0  0  0  0  0  0  0  0  0  0
   -4.5398   -2.6370    0.0000 O   0  0  0  0  0  0  0  0  0  0  0  0
   -2.6889   -0.8138    0.0000 O   0  0  0  0  0  0  0  0  0  0  0  0
   -1.6363   -1.8825    0.0000 C   0  0  0  0  0  0  0  0  0  0  0  0
   -0.1845   -1.5052    0.0000 C   0  0  0  0  0  0  0  0  0  0  0  0
    0.2147   -0.0593    0.0000 N   0  0  0  0  0  0  0  0  0  0  0  0
    1.6664    0.3180    0.0000 C   0  0  0  0  0  0  0  0  0  0  0  0
    2.7191   -0.7506    0.0000 O   0  0  0  0  0  0  0  0  0  0  0  0
    2.0656    1.7639    0.0000 C   0  0  0  0  0  0  0  0  0  0  0  0
    3.5174    2.1412    0.0000 C   0  0  0  0  0  0  0  0  0  0  0  0
    3.9165    3.5871    0.0000 C   0  0  0  0  0  0  0  0  0  0  0  0
    5.3683    3.9644    0.0000 C   0  0  0  0  0  0  0  0  0  0  0  0
    5.7675    5.4103    0.0000 C   0  0  0  0  0  0  0  0  0  0  0  0
    4.7148    6.4790    0.0000 C   0  0  0  0  0  0  0  0  0  0  0  0
    3.2631    6.1017    0.0000 C   0  0  0  0  0  0  0  0  0  0  0  0
    2.8639    4.6558    0.0000 C   0  0  0  0  0  0  0  0  0  0  0  0
    0.8681   -2.5738    0.0000 C   0  0  0  0  0  0  0  0  0  0  0  0
    0.4690   -4.0197    0.0000 O   0  0  0  0  0  0  0  0  0  0  0  0
    2.3199   -2.1965    0.0000 N   0  0  0  0  0  0  0  0  0  0  0  0
    3.3725   -3.2652    0.0000 C   0  0  0  0  0  0  0  0  0  0  0  0
    2.9734   -4.7111    0.0000 C   0  0  0  0  0  0  0  0  0  0  0  0
    4.0260   -5.7797    0.0000 C   0  0  0  0  0  0  0  0  0  0  0  0
    5.4778   -5.4024    0.0000 C   0  0  0  0  0  0  0  0  0  0  0  0
    5.8769   -3.9565    0.0000 C   0  0  0  0  0  0  0  0  0  0  0  0
    4.8243   -2.8879    0.0000 C   0  0  0  0  0  0  0  0  0  0  0  0
   -3.3424    1.7007    0.0000 N   0  0  0  0  0  0  0  0  0  0  0  0
   -2.2897    0.6321    0.0000 O   0  0  0  0  0  0  0  0  0  0  0  0
   -2.9432    3.1466    0.0000 O   0  0  0  0  0  0  0  0  0  0  0  0
  1  2  1  0
  2  3  2  0
  2  7  1  0
  3  4  1  0
  4  5  2  0
  5  6  1  0
  6  7  2  0
  6 33  1  0
  7  8  1  0
  8  9  2  0
  8 10  1  0
 10 11  1  0
 11 12  1  0
 12 13  1  0
 12 24  1  0
 13 14  1  0
 14 15  2  0
 14 16  1  0
 16 17  2  0
 17 18  1  0
 18 19  2  0
 18 23  1  0
 19 20  1  0
 20 21  2  0
 21 22  1  0
 22 23  2  0
 24 25  2  0
 24 26  1  0
 26 27  1  0
 27 28  1  0
 27 32  1  0
 28 29  1  0
 29 30  1  0
 30 31  1  0
 31 32  1  0
 33 34  2  0
 33 35  1  0
M  CHG  2  33   1  35  -1
M  END
>  <s_m_entry_id>  (488) 
1164

>  <s_m_entry_name>  (488) 
3C-like_protease_GHDDI_ligprep.783

>  <s_m_Source_Path>  (488) 
/home/jgilaber/drug_learning/drug_learning/datasets/SAR1/GHDDI

>  <s_m_Source_File>  (488) 
3C-like_protease_GHDDI_ligprep.sdf

>  <i_m_Source_File_Index>  (488) 
783

>  <s_m_subgroup_title>  (488) 
3C-like_protease_GHDDI_ligprep

>  <s_m_subgroupid>  (488) 
3C-like_protease_GHDDI_ligprep

>  <b_m_subgroup_collapsed>  (488) 
0

$$$$
14030
     RDKit          2D

 35 37  0  0  1  0  0  0  0  0999 V2000
   -9.1159   -3.6908    0.0000 C   0  0  0  0  0  0  0  0  0  0  0  0
   -7.6707   -3.2889    0.0000 O   0  0  0  0  0  0  0  0  0  0  0  0
   -7.2962   -1.8364    0.0000 C   0  0  0  0  0  0  0  0  0  0  0  0
   -8.3668   -0.7858    0.0000 C   0  0  0  0  0  0  0  0  0  0  0  0
   -7.9923    0.6667    0.0000 C   0  0  0  0  0  0  0  0  0  0  0  0
   -9.0629    1.7173    0.0000 O   0  0  0  0  0  0  0  0  0  0  0  0
   -8.6883    3.1698    0.0000 C   0  0  0  0  0  0  0  0  0  0  0  0
   -6.5471    1.0686    0.0000 C   0  0  0  0  0  0  0  0  0  0  0  0
   -5.4765    0.0180    0.0000 C   0  0  0  0  0  0  0  0  0  0  0  0
   -4.0313    0.4199    0.0000 C   0  0  0  0  0  0  0  0  0  0  0  0
   -2.9607   -0.6307    0.0000 C   0  0  0  0  0  0  0  0  0  0  0  0
   -1.5155   -0.2288    0.0000 C   0  0  0  0  0  0  0  0  0  0  0  0
   -1.1410    1.2237    0.0000 O   0  0  0  0  0  0  0  0  0  0  0  0
   -0.4449   -1.2794    0.0000 N   0  0  0  0  0  0  0  0  0  0  0  0
    1.0003   -0.8775    0.0000 C   0  0  0  0  0  0  0  0  0  0  0  0
    2.0709   -1.9281    0.0000 C   0  0  0  0  0  0  0  0  0  0  0  0
    3.5160   -1.5263    0.0000 O   0  0  0  0  0  0  0  0  0  0  0  0
    4.5867   -2.5769    0.0000 C   0  0  0  0  0  0  0  0  0  0  0  0
    4.2121   -4.0293    0.0000 O   0  0  0  0  0  0  0  0  0  0  0  0
    6.0318   -2.1750    0.0000 C   0  0  0  0  0  0  0  0  0  0  0  0
    7.1025   -3.2256    0.0000 C   0  0  0  0  0  0  0  0  0  0  0  0
    8.5476   -2.8237    0.0000 C   0  0  0  0  0  0  0  0  0  0  0  0
    8.9221   -1.3712    0.0000 C   0  0  0  0  0  0  0  0  0  0  0  0
    7.8515   -0.3206    0.0000 C   0  0  0  0  0  0  0  0  0  0  0  0
    6.4064   -0.7225    0.0000 C   0  0  0  0  0  0  0  0  0  0  0  0
    1.3748    0.5749    0.0000 C   0  0  0  0  0  0  0  0  0  0  0  0
    0.3042    1.6255    0.0000 O   0  0  0  0  0  0  0  0  0  0  0  0
    2.8200    0.9768    0.0000 N   0  0  0  0  0  0  0  0  0  0  0  0
    3.1945    2.4293    0.0000 C   0  0  0  0  0  0  0  0  0  0  0  0
    4.6396    2.8312    0.0000 C   0  0  0  0  0  0  0  0  0  0  0  0
    5.0142    4.2837    0.0000 C   0  0  0  0  0  0  0  0  0  0  0  0
    3.9435    5.3343    0.0000 C   0  0  0  0  0  0  0  0  0  0  0  0
    2.4984    4.9324    0.0000 C   0  0  0  0  0  0  0  0  0  0  0  0
    2.1239    3.4799    0.0000 C   0  0  0  0  0  0  0  0  0  0  0  0
   -5.8510   -1.4345    0.0000 C   0  0  0  0  0  0  0  0  0  0  0  0
  1  2  1  0
  2  3  1  0
  3  4  2  0
  3 35  1  0
  4  5  1  0
  5  6  1  0
  5  8  2  0
  6  7  1  0
  8  9  1  0
  9 10  1  0
  9 35  2  0
 10 11  2  0
 11 12  1  0
 12 13  2  0
 12 14  1  0
 14 15  1  0
 15 16  1  0
 15 26  1  0
 16 17  1  0
 17 18  1  0
 18 19  2  0
 18 20  1  0
 20 21  2  0
 20 25  1  0
 21 22  1  0
 22 23  2  0
 23 24  1  0
 24 25  2  0
 26 27  2  0
 26 28  1  0
 28 29  1  0
 29 30  1  0
 29 34  1  0
 30 31  1  0
 31 32  1  0
 32 33  1  0
 33 34  1  0
M  END
>  <s_m_entry_id>  (489) 
1166

>  <s_m_entry_name>  (489) 
3C-like_protease_GHDDI_ligprep.785

>  <s_m_Source_Path>  (489) 
/home/jgilaber/drug_learning/drug_learning/datasets/SAR1/GHDDI

>  <s_m_Source_File>  (489) 
3C-like_protease_GHDDI_ligprep.sdf

>  <i_m_Source_File_Index>  (489) 
785

>  <s_m_subgroup_title>  (489) 
3C-like_protease_GHDDI_ligprep

>  <s_m_subgroupid>  (489) 
3C-like_protease_GHDDI_ligprep

>  <b_m_subgroup_collapsed>  (489) 
0

$$$$
14031
     RDKit          2D

 32 34  0  0  1  0  0  0  0  0999 V2000
   -5.4653    4.9844    0.0000 C   0  0  0  0  0  0  0  0  0  0  0  0
   -6.0311    3.5952    0.0000 C   0  0  0  0  0  0  0  0  0  0  0  0
   -5.1110    2.4106    0.0000 C   0  0  0  0  0  0  0  0  0  0  0  0
   -5.6768    1.0214    0.0000 C   0  0  0  0  0  0  0  0  0  0  0  0
   -4.7566   -0.1632    0.0000 C   0  0  0  0  0  0  0  0  0  0  0  0
   -3.2706    0.0414    0.0000 C   0  0  0  0  0  0  0  0  0  0  0  0
   -2.3504   -1.1432    0.0000 C   0  0  0  0  0  0  0  0  0  0  0  0
   -2.9162   -2.5324    0.0000 C   0  0  0  0  0  0  0  0  0  0  0  0
   -4.4022   -2.7370    0.0000 C   0  0  0  0  0  0  0  0  0  0  0  0
   -4.9680   -4.1262    0.0000 O   0  0  0  0  0  0  0  0  0  0  0  0
   -5.3224   -1.5524    0.0000 C   0  0  0  0  0  0  0  0  0  0  0  0
   -6.8084   -1.7570    0.0000 O   0  0  0  0  0  0  0  0  0  0  0  0
   -0.8644   -0.9386    0.0000 C   0  0  0  0  0  0  0  0  0  0  0  0
    0.0557   -2.1232    0.0000 C   0  0  0  0  0  0  0  0  0  0  0  0
   -0.5101   -3.5124    0.0000 O   0  0  0  0  0  0  0  0  0  0  0  0
    1.5417   -1.9186    0.0000 C   0  0  0  0  0  0  0  0  0  0  0  0
    2.4619   -3.1032    0.0000 O   0  0  0  0  0  0  0  0  0  0  0  0
    2.1075   -0.5294    0.0000 C   0  0  0  0  0  0  0  0  0  0  0  0
    3.5935   -0.3248    0.0000 C   0  0  0  0  0  0  0  0  0  0  0  0
    4.5137   -1.5094    0.0000 O   0  0  0  0  0  0  0  0  0  0  0  0
    4.1593    1.0644    0.0000 C   0  0  0  0  0  0  0  0  0  0  0  0
    5.6453    1.2690    0.0000 C   0  0  0  0  0  0  0  0  0  0  0  0
    6.5655    0.0844    0.0000 C   0  0  0  0  0  0  0  0  0  0  0  0
    8.0515    0.2890    0.0000 C   0  0  0  0  0  0  0  0  0  0  0  0
    8.9716   -0.8956    0.0000 C   0  0  0  0  0  0  0  0  0  0  0  0
    8.6173    1.6782    0.0000 C   0  0  0  0  0  0  0  0  0  0  0  0
    3.2391    2.2490    0.0000 C   0  0  0  0  0  0  0  0  0  0  0  0
    3.8049    3.6382    0.0000 O   0  0  0  0  0  0  0  0  0  0  0  0
    1.7532    2.0444    0.0000 C   0  0  0  0  0  0  0  0  0  0  0  0
    1.1874    0.6552    0.0000 C   0  0  0  0  0  0  0  0  0  0  0  0
   -0.2986    0.4506    0.0000 O   0  0  0  0  0  0  0  0  0  0  0  0
   -7.5171    3.3906    0.0000 C   0  0  0  0  0  0  0  0  0  0  0  0
  1  2  1  0
  2  3  2  3
  2 32  1  0
  3  4  1  0
  4  5  1  0
  5  6  2  0
  5 11  1  0
  6  7  1  0
  7  8  2  0
  7 13  1  0
  8  9  1  0
  9 10  1  0
  9 11  2  0
 11 12  1  0
 13 14  2  0
 13 31  1  0
 14 15  1  0
 14 16  1  0
 16 17  2  0
 16 18  1  0
 18 19  2  0
 18 30  1  0
 19 20  1  0
 19 21  1  0
 21 22  1  0
 21 27  2  0
 22 23  1  0
 23 24  2  3
 24 25  1  0
 24 26  1  0
 27 28  1  0
 27 29  1  0
 29 30  2  0
 30 31  1  0
M  END
>  <s_m_entry_id>  (490) 
1167

>  <s_m_entry_name>  (490) 
3C-like_protease_GHDDI_ligprep.786

>  <s_m_Source_Path>  (490) 
/home/jgilaber/drug_learning/drug_learning/datasets/SAR1/GHDDI

>  <s_m_Source_File>  (490) 
3C-like_protease_GHDDI_ligprep.sdf

>  <i_m_Source_File_Index>  (490) 
786

>  <s_m_subgroup_title>  (490) 
3C-like_protease_GHDDI_ligprep

>  <s_m_subgroupid>  (490) 
3C-like_protease_GHDDI_ligprep

>  <b_m_subgroup_collapsed>  (490) 
0

$$$$
14036
     RDKit          2D

 35 39  0  0  1  0  0  0  0  0999 V2000
   -5.4429   -1.3951    0.0000 O   0  0  0  0  0  0  0  0  0  0  0  0
   -5.3407    0.1015    0.0000 C   0  0  0  0  0  0  0  0  0  0  0  0
   -3.9936    0.7612    0.0000 C   0  0  0  0  0  0  0  0  0  0  0  0
   -3.8914    2.2577    0.0000 C   0  0  0  0  0  0  0  0  0  0  0  0
   -5.1364    3.0945    0.0000 C   0  0  0  0  0  0  0  0  0  0  0  0
   -6.5451    2.5791    0.0000 C   0  0  0  0  0  0  0  0  0  0  0  0
   -7.4705    3.7596    0.0000 N   0  0  0  0  0  0  0  0  0  0  0  0
   -6.6337    5.0046    0.0000 C   0  0  0  0  0  0  0  0  0  0  0  0
   -5.1912    4.5935    0.0000 N   0  0  0  0  0  0  0  0  0  0  0  0
   -2.7487   -0.0755    0.0000 N   0  0  0  0  0  0  0  0  0  0  0  0
   -2.8508   -1.5720    0.0000 C   0  0  0  0  0  0  0  0  0  0  0  0
   -1.6059   -2.4088    0.0000 C   0  0  0  0  0  0  0  0  0  0  0  0
   -1.7081   -3.9053    0.0000 C   0  0  0  0  0  0  0  0  0  0  0  0
   -0.4631   -4.7420    0.0000 C   0  0  0  0  0  0  0  0  0  0  0  0
   -0.5653   -6.2386    0.0000 C   0  0  0  0  0  0  0  0  0  0  0  0
    0.6796   -7.0753    0.0000 C   0  0  0  0  0  0  0  0  0  0  0  0
    2.0267   -6.4155    0.0000 C   0  0  0  0  0  0  0  0  0  0  0  0
    2.1289   -4.9190    0.0000 C   0  0  0  0  0  0  0  0  0  0  0  0
    0.8840   -4.0823    0.0000 C   0  0  0  0  0  0  0  0  0  0  0  0
    0.9861   -2.5857    0.0000 C   0  0  0  0  0  0  0  0  0  0  0  0
   -0.2588   -1.7490    0.0000 N   0  0  0  0  0  0  0  0  0  0  0  0
   -0.1566   -0.2525    0.0000 C   0  0  0  0  0  0  0  0  0  0  0  0
   -1.4016    0.5843    0.0000 O   0  0  0  0  0  0  0  0  0  0  0  0
    1.1905    0.4073    0.0000 C   0  0  0  0  0  0  0  0  0  0  0  0
    2.4354   -0.4295    0.0000 C   0  0  0  0  0  0  0  0  0  0  0  0
    3.7825    0.2303    0.0000 C   0  0  0  0  0  0  0  0  0  0  0  0
    3.8847    1.7268    0.0000 C   0  0  0  0  0  0  0  0  0  0  0  0
    2.6398    2.5636    0.0000 C   0  0  0  0  0  0  0  0  0  0  0  0
    1.2927    1.9038    0.0000 C   0  0  0  0  0  0  0  0  0  0  0  0
    5.2318    2.3866    0.0000 C   0  0  0  0  0  0  0  0  0  0  0  0
    6.4767    1.5499    0.0000 C   0  0  0  0  0  0  0  0  0  0  0  0
    7.8239    2.2096    0.0000 C   0  0  0  0  0  0  0  0  0  0  0  0
    7.9260    3.7061    0.0000 C   0  0  0  0  0  0  0  0  0  0  0  0
    6.6811    4.5429    0.0000 C   0  0  0  0  0  0  0  0  0  0  0  0
    5.3340    3.8831    0.0000 C   0  0  0  0  0  0  0  0  0  0  0  0
  1  2  1  0
  2  3  2  0
  3  4  1  0
  3 10  1  0
  4  5  1  0
  5  6  2  0
  5  9  1  0
  6  7  1  0
  7  8  1  0
  8  9  2  0
 10 11  1  0
 11 12  1  0
 12 13  1  0
 12 21  1  0
 13 14  1  0
 14 15  1  0
 14 19  1  0
 15 16  1  0
 16 17  1  0
 17 18  1  0
 18 19  1  0
 19 20  1  0
 20 21  1  0
 21 22  1  0
 22 23  2  0
 22 24  1  0
 24 25  2  0
 24 29  1  0
 25 26  1  0
 26 27  2  0
 27 28  1  0
 27 30  1  0
 28 29  2  0
 30 31  2  0
 30 35  1  0
 31 32  1  0
 32 33  2  0
 33 34  1  0
 34 35  2  0
M  CHG  2   1  -1  10   1
M  END
>  <s_m_entry_id>  (491) 
1172

>  <s_m_entry_name>  (491) 
3C-like_protease_GHDDI_ligprep.791

>  <s_m_Source_Path>  (491) 
/home/jgilaber/drug_learning/drug_learning/datasets/SAR1/GHDDI

>  <s_m_Source_File>  (491) 
3C-like_protease_GHDDI_ligprep.sdf

>  <i_m_Source_File_Index>  (491) 
791

>  <s_m_subgroup_title>  (491) 
3C-like_protease_GHDDI_ligprep

>  <s_m_subgroupid>  (491) 
3C-like_protease_GHDDI_ligprep

>  <b_m_subgroup_collapsed>  (491) 
0

$$$$
14039
     RDKit          2D

 18 17  0  0  1  0  0  0  0  0999 V2000
   -8.4891   -0.7059    0.0000 N   0  0  0  0  0  0  0  0  0  0  0  0
   -7.1545   -0.0211    0.0000 S   0  0  0  0  0  0  0  0  0  0  0  0
   -6.4697   -1.3556    0.0000 O   0  0  0  0  0  0  0  0  0  0  0  0
   -7.8393    1.3135    0.0000 O   0  0  0  0  0  0  0  0  0  0  0  0
   -5.8200    0.6637    0.0000 O   0  0  0  0  0  0  0  0  0  0  0  0
   -4.5596   -0.1496    0.0000 C   0  0  0  0  0  0  0  0  0  0  0  0
   -3.2251    0.5352    0.0000 C   0  0  0  0  0  0  0  0  0  0  0  0
   -1.9647   -0.2781    0.0000 C   0  0  0  0  0  0  0  0  0  0  0  0
   -0.6302    0.4067    0.0000 C   0  0  0  0  0  0  0  0  0  0  0  0
    0.6302   -0.4067    0.0000 C   0  0  0  0  0  0  0  0  0  0  0  0
    1.9647    0.2781    0.0000 C   0  0  0  0  0  0  0  0  0  0  0  0
    3.2251   -0.5352    0.0000 C   0  0  0  0  0  0  0  0  0  0  0  0
    4.5596    0.1496    0.0000 C   0  0  0  0  0  0  0  0  0  0  0  0
    5.8200   -0.6637    0.0000 O   0  0  0  0  0  0  0  0  0  0  0  0
    7.1545    0.0211    0.0000 S   0  0  0  0  0  0  0  0  0  0  0  0
    6.4697    1.3556    0.0000 O   0  0  0  0  0  0  0  0  0  0  0  0
    7.8393   -1.3135    0.0000 O   0  0  0  0  0  0  0  0  0  0  0  0
    8.4891    0.7059    0.0000 N   0  0  0  0  0  0  0  0  0  0  0  0
  1  2  1  0
  2  3  2  0
  2  4  2  0
  2  5  1  0
  5  6  1  0
  6  7  1  0
  7  8  1  0
  8  9  1  0
  9 10  1  0
 10 11  1  0
 11 12  1  0
 12 13  1  0
 13 14  1  0
 14 15  1  0
 15 16  2  0
 15 17  2  0
 15 18  1  0
M  END
>  <s_m_entry_id>  (492) 
1177

>  <s_m_entry_name>  (492) 
3C-like_protease_GHDDI_ligprep.796

>  <s_m_Source_Path>  (492) 
/home/jgilaber/drug_learning/drug_learning/datasets/SAR1/GHDDI

>  <s_m_Source_File>  (492) 
3C-like_protease_GHDDI_ligprep.sdf

>  <i_m_Source_File_Index>  (492) 
796

>  <s_m_subgroup_title>  (492) 
3C-like_protease_GHDDI_ligprep

>  <s_m_subgroupid>  (492) 
3C-like_protease_GHDDI_ligprep

>  <b_m_subgroup_collapsed>  (492) 
0

$$$$
14040
     RDKit          2D

 33 35  0  0  1  0  0  0  0  0999 V2000
    3.9570   -2.9878    0.0000 O   0  0  0  0  0  0  0  0  0  0  0  0
    3.6835   -1.5129    0.0000 C   0  0  0  0  0  0  0  0  0  0  0  0
    4.8241   -0.5387    0.0000 C   0  0  0  0  0  0  0  0  0  0  0  0
    6.2381   -1.0393    0.0000 C   0  0  0  0  0  0  0  0  0  0  0  0
    7.3786   -0.0650    0.0000 C   0  0  0  0  0  0  0  0  0  0  0  0
    8.7926   -0.5656    0.0000 C   0  0  0  0  0  0  0  0  0  0  0  0
    9.9332    0.4086    0.0000 C   0  0  0  0  0  0  0  0  0  0  0  0
    9.6597    1.8835    0.0000 C   0  0  0  0  0  0  0  0  0  0  0  0
    8.2457    2.3841    0.0000 C   0  0  0  0  0  0  0  0  0  0  0  0
    7.1052    1.4098    0.0000 C   0  0  0  0  0  0  0  0  0  0  0  0
    2.2695   -1.0123    0.0000 O   0  0  0  0  0  0  0  0  0  0  0  0
    1.1290   -1.9866    0.0000 C   0  0  0  0  0  0  0  0  0  0  0  0
   -0.2850   -1.4859    0.0000 C   0  0  0  0  0  0  0  0  0  0  0  0
   -0.5584   -0.0111    0.0000 N   0  0  0  0  0  0  0  0  0  0  0  0
   -1.9724    0.4895    0.0000 C   0  0  0  0  0  0  0  0  0  0  0  0
   -3.1130   -0.4847    0.0000 O   0  0  0  0  0  0  0  0  0  0  0  0
   -2.2459    1.9644    0.0000 C   0  0  0  0  0  0  0  0  0  0  0  0
   -3.6599    2.4650    0.0000 C   0  0  0  0  0  0  0  0  0  0  0  0
   -3.9333    3.9399    0.0000 C   0  0  0  0  0  0  0  0  0  0  0  0
   -2.7928    4.9141    0.0000 C   0  0  0  0  0  0  0  0  0  0  0  0
   -3.0663    6.3890    0.0000 C   0  0  0  0  0  0  0  0  0  0  0  0
   -4.4803    6.8896    0.0000 C   0  0  0  0  0  0  0  0  0  0  0  0
   -5.6208    5.9153    0.0000 C   0  0  0  0  0  0  0  0  0  0  0  0
   -5.3473    4.4405    0.0000 C   0  0  0  0  0  0  0  0  0  0  0  0
   -1.4255   -2.4602    0.0000 C   0  0  0  0  0  0  0  0  0  0  0  0
   -1.1521   -3.9351    0.0000 O   0  0  0  0  0  0  0  0  0  0  0  0
   -2.8395   -1.9596    0.0000 N   0  0  0  0  0  0  0  0  0  0  0  0
   -3.9801   -2.9338    0.0000 C   0  0  0  0  0  0  0  0  0  0  0  0
   -5.3941   -2.4332    0.0000 C   0  0  0  0  0  0  0  0  0  0  0  0
   -6.5346   -3.4075    0.0000 C   0  0  0  0  0  0  0  0  0  0  0  0
   -6.2612   -4.8823    0.0000 C   0  0  0  0  0  0  0  0  0  0  0  0
   -4.8472   -5.3830    0.0000 C   0  0  0  0  0  0  0  0  0  0  0  0
   -3.7066   -4.4087    0.0000 C   0  0  0  0  0  0  0  0  0  0  0  0
  1  2  2  0
  2  3  1  0
  2 11  1  0
  3  4  1  0
  4  5  1  0
  5  6  2  0
  5 10  1  0
  6  7  1  0
  7  8  2  0
  8  9  1  0
  9 10  2  0
 11 12  1  0
 12 13  1  0
 13 14  1  0
 13 25  1  0
 14 15  1  0
 15 16  2  0
 15 17  1  0
 17 18  2  0
 18 19  1  0
 19 20  2  0
 19 24  1  0
 20 21  1  0
 21 22  2  0
 22 23  1  0
 23 24  2  0
 25 26  2  0
 25 27  1  0
 27 28  1  0
 28 29  1  0
 28 33  1  0
 29 30  1  0
 30 31  1  0
 31 32  1  0
 32 33  1  0
M  END
>  <s_m_entry_id>  (493) 
1178

>  <s_m_entry_name>  (493) 
3C-like_protease_GHDDI_ligprep.797

>  <s_m_Source_Path>  (493) 
/home/jgilaber/drug_learning/drug_learning/datasets/SAR1/GHDDI

>  <s_m_Source_File>  (493) 
3C-like_protease_GHDDI_ligprep.sdf

>  <i_m_Source_File_Index>  (493) 
797

>  <s_m_subgroup_title>  (493) 
3C-like_protease_GHDDI_ligprep

>  <s_m_subgroupid>  (493) 
3C-like_protease_GHDDI_ligprep

>  <b_m_subgroup_collapsed>  (493) 
0

$$$$
14041
     RDKit          2D

 33 35  0  0  1  0  0  0  0  0999 V2000
    3.9570   -2.9878    0.0000 O   0  0  0  0  0  0  0  0  0  0  0  0
    3.6835   -1.5129    0.0000 C   0  0  0  0  0  0  0  0  0  0  0  0
    4.8241   -0.5387    0.0000 C   0  0  0  0  0  0  0  0  0  0  0  0
    6.2381   -1.0393    0.0000 C   0  0  0  0  0  0  0  0  0  0  0  0
    7.3786   -0.0650    0.0000 C   0  0  0  0  0  0  0  0  0  0  0  0
    8.7926   -0.5656    0.0000 C   0  0  0  0  0  0  0  0  0  0  0  0
    9.9332    0.4086    0.0000 C   0  0  0  0  0  0  0  0  0  0  0  0
    9.6597    1.8835    0.0000 C   0  0  0  0  0  0  0  0  0  0  0  0
    8.2457    2.3841    0.0000 C   0  0  0  0  0  0  0  0  0  0  0  0
    7.1052    1.4098    0.0000 C   0  0  0  0  0  0  0  0  0  0  0  0
    2.2695   -1.0123    0.0000 O   0  0  0  0  0  0  0  0  0  0  0  0
    1.1290   -1.9866    0.0000 C   0  0  0  0  0  0  0  0  0  0  0  0
   -0.2850   -1.4859    0.0000 C   0  0  0  0  0  0  0  0  0  0  0  0
   -0.5584   -0.0111    0.0000 N   0  0  0  0  0  0  0  0  0  0  0  0
   -1.9724    0.4895    0.0000 C   0  0  0  0  0  0  0  0  0  0  0  0
   -3.1130   -0.4847    0.0000 O   0  0  0  0  0  0  0  0  0  0  0  0
   -2.2459    1.9644    0.0000 C   0  0  0  0  0  0  0  0  0  0  0  0
   -3.6599    2.4650    0.0000 C   0  0  0  0  0  0  0  0  0  0  0  0
   -3.9333    3.9399    0.0000 C   0  0  0  0  0  0  0  0  0  0  0  0
   -2.7928    4.9141    0.0000 C   0  0  0  0  0  0  0  0  0  0  0  0
   -3.0663    6.3890    0.0000 C   0  0  0  0  0  0  0  0  0  0  0  0
   -4.4803    6.8896    0.0000 C   0  0  0  0  0  0  0  0  0  0  0  0
   -5.6208    5.9153    0.0000 C   0  0  0  0  0  0  0  0  0  0  0  0
   -5.3473    4.4405    0.0000 C   0  0  0  0  0  0  0  0  0  0  0  0
   -1.4255   -2.4602    0.0000 C   0  0  0  0  0  0  0  0  0  0  0  0
   -1.1521   -3.9351    0.0000 O   0  0  0  0  0  0  0  0  0  0  0  0
   -2.8395   -1.9596    0.0000 N   0  0  0  0  0  0  0  0  0  0  0  0
   -3.9801   -2.9338    0.0000 C   0  0  0  0  0  0  0  0  0  0  0  0
   -5.3941   -2.4332    0.0000 C   0  0  0  0  0  0  0  0  0  0  0  0
   -6.5346   -3.4075    0.0000 C   0  0  0  0  0  0  0  0  0  0  0  0
   -6.2612   -4.8823    0.0000 C   0  0  0  0  0  0  0  0  0  0  0  0
   -4.8472   -5.3830    0.0000 C   0  0  0  0  0  0  0  0  0  0  0  0
   -3.7066   -4.4087    0.0000 C   0  0  0  0  0  0  0  0  0  0  0  0
  1  2  2  0
  2  3  1  0
  2 11  1  0
  3  4  1  0
  4  5  1  0
  5  6  2  0
  5 10  1  0
  6  7  1  0
  7  8  2  0
  8  9  1  0
  9 10  2  0
 11 12  1  0
 12 13  1  0
 13 14  1  0
 13 25  1  0
 14 15  1  0
 15 16  2  0
 15 17  1  0
 17 18  2  0
 18 19  1  0
 19 20  2  0
 19 24  1  0
 20 21  1  0
 21 22  2  0
 22 23  1  0
 23 24  2  0
 25 26  2  0
 25 27  1  0
 27 28  1  0
 28 29  1  0
 28 33  1  0
 29 30  1  0
 30 31  1  0
 31 32  1  0
 32 33  1  0
M  END
>  <s_m_entry_id>  (494) 
1179

>  <s_m_entry_name>  (494) 
3C-like_protease_GHDDI_ligprep.798

>  <s_m_Source_Path>  (494) 
/home/jgilaber/drug_learning/drug_learning/datasets/SAR1/GHDDI

>  <s_m_Source_File>  (494) 
3C-like_protease_GHDDI_ligprep.sdf

>  <i_m_Source_File_Index>  (494) 
798

>  <s_m_subgroup_title>  (494) 
3C-like_protease_GHDDI_ligprep

>  <s_m_subgroupid>  (494) 
3C-like_protease_GHDDI_ligprep

>  <b_m_subgroup_collapsed>  (494) 
0

$$$$
14042
     RDKit          2D

 31 33  0  0  1  0  0  0  0  0999 V2000
   -2.2016   -0.6823    0.0000 O   0  0  0  0  0  0  0  0  0  0  0  0
   -1.1713    0.4079    0.0000 C   0  0  0  0  0  0  0  0  0  0  0  0
    0.2880    0.0607    0.0000 N   0  0  0  0  0  0  0  0  0  0  0  0
    0.7170   -1.3766    0.0000 C   0  0  0  0  0  0  0  0  0  0  0  0
    2.1762   -1.7238    0.0000 C   0  0  0  0  0  0  0  0  0  0  0  0
    3.2065   -0.6336    0.0000 O   0  0  0  0  0  0  0  0  0  0  0  0
    4.6658   -0.9808    0.0000 C   0  0  0  0  0  0  0  0  0  0  0  0
    5.0948   -2.4182    0.0000 O   0  0  0  0  0  0  0  0  0  0  0  0
    5.6961    0.1094    0.0000 C   0  0  0  0  0  0  0  0  0  0  0  0
    7.1554   -0.2378    0.0000 C   0  0  0  0  0  0  0  0  0  0  0  0
    8.1857    0.8524    0.0000 C   0  0  0  0  0  0  0  0  0  0  0  0
    7.7567    2.2897    0.0000 C   0  0  0  0  0  0  0  0  0  0  0  0
    6.2974    2.6369    0.0000 C   0  0  0  0  0  0  0  0  0  0  0  0
    5.2671    1.5467    0.0000 C   0  0  0  0  0  0  0  0  0  0  0  0
   -0.3133   -2.4668    0.0000 C   0  0  0  0  0  0  0  0  0  0  0  0
    0.1156   -3.9042    0.0000 O   0  0  0  0  0  0  0  0  0  0  0  0
   -1.7726   -2.1197    0.0000 N   0  0  0  0  0  0  0  0  0  0  0  0
   -2.8029   -3.2098    0.0000 C   0  0  0  0  0  0  0  0  0  0  0  0
   -4.2622   -2.8627    0.0000 C   0  0  0  0  0  0  0  0  0  0  0  0
   -5.2925   -3.9528    0.0000 C   0  0  0  0  0  0  0  0  0  0  0  0
   -4.8635   -5.3902    0.0000 C   0  0  0  0  0  0  0  0  0  0  0  0
   -3.4042   -5.7374    0.0000 C   0  0  0  0  0  0  0  0  0  0  0  0
   -2.3739   -4.6472    0.0000 C   0  0  0  0  0  0  0  0  0  0  0  0
   -1.6002    1.8452    0.0000 C   0  0  0  0  0  0  0  0  0  0  0  0
   -3.0595    2.1924    0.0000 C   0  0  0  0  0  0  0  0  0  0  0  0
   -3.4885    3.6298    0.0000 C   0  0  0  0  0  0  0  0  0  0  0  0
   -2.4582    4.7199    0.0000 C   0  0  0  0  0  0  0  0  0  0  0  0
   -2.8872    6.1573    0.0000 C   0  0  0  0  0  0  0  0  0  0  0  0
   -4.3464    6.5045    0.0000 C   0  0  0  0  0  0  0  0  0  0  0  0
   -5.3767    5.4143    0.0000 C   0  0  0  0  0  0  0  0  0  0  0  0
   -4.9478    3.9769    0.0000 C   0  0  0  0  0  0  0  0  0  0  0  0
  1  2  2  0
  2  3  1  0
  2 24  1  0
  3  4  1  0
  4  5  1  0
  4 15  1  0
  5  6  1  0
  6  7  1  0
  7  8  2  0
  7  9  1  0
  9 10  2  0
  9 14  1  0
 10 11  1  0
 11 12  2  0
 12 13  1  0
 13 14  2  0
 15 16  2  0
 15 17  1  0
 17 18  1  0
 18 19  1  0
 18 23  1  0
 19 20  1  0
 20 21  1  0
 21 22  1  0
 22 23  1  0
 24 25  2  0
 25 26  1  0
 26 27  2  0
 26 31  1  0
 27 28  1  0
 28 29  2  0
 29 30  1  0
 30 31  2  0
M  END
>  <s_m_entry_id>  (495) 
1181

>  <s_m_entry_name>  (495) 
3C-like_protease_GHDDI_ligprep.800

>  <s_m_Source_Path>  (495) 
/home/jgilaber/drug_learning/drug_learning/datasets/SAR1/GHDDI

>  <s_m_Source_File>  (495) 
3C-like_protease_GHDDI_ligprep.sdf

>  <i_m_Source_File_Index>  (495) 
800

>  <s_m_subgroup_title>  (495) 
3C-like_protease_GHDDI_ligprep

>  <s_m_subgroupid>  (495) 
3C-like_protease_GHDDI_ligprep

>  <b_m_subgroup_collapsed>  (495) 
0

$$$$
14043
     RDKit          2D

 31 33  0  0  1  0  0  0  0  0999 V2000
   -2.2016   -0.6823    0.0000 O   0  0  0  0  0  0  0  0  0  0  0  0
   -1.1713    0.4079    0.0000 C   0  0  0  0  0  0  0  0  0  0  0  0
    0.2880    0.0607    0.0000 N   0  0  0  0  0  0  0  0  0  0  0  0
    0.7170   -1.3766    0.0000 C   0  0  0  0  0  0  0  0  0  0  0  0
    2.1762   -1.7238    0.0000 C   0  0  0  0  0  0  0  0  0  0  0  0
    3.2065   -0.6336    0.0000 O   0  0  0  0  0  0  0  0  0  0  0  0
    4.6658   -0.9808    0.0000 C   0  0  0  0  0  0  0  0  0  0  0  0
    5.0948   -2.4182    0.0000 O   0  0  0  0  0  0  0  0  0  0  0  0
    5.6961    0.1094    0.0000 C   0  0  0  0  0  0  0  0  0  0  0  0
    7.1554   -0.2378    0.0000 C   0  0  0  0  0  0  0  0  0  0  0  0
    8.1857    0.8524    0.0000 C   0  0  0  0  0  0  0  0  0  0  0  0
    7.7567    2.2897    0.0000 C   0  0  0  0  0  0  0  0  0  0  0  0
    6.2974    2.6369    0.0000 C   0  0  0  0  0  0  0  0  0  0  0  0
    5.2671    1.5467    0.0000 C   0  0  0  0  0  0  0  0  0  0  0  0
   -0.3133   -2.4668    0.0000 C   0  0  0  0  0  0  0  0  0  0  0  0
    0.1156   -3.9042    0.0000 O   0  0  0  0  0  0  0  0  0  0  0  0
   -1.7726   -2.1197    0.0000 N   0  0  0  0  0  0  0  0  0  0  0  0
   -2.8029   -3.2098    0.0000 C   0  0  0  0  0  0  0  0  0  0  0  0
   -4.2622   -2.8627    0.0000 C   0  0  0  0  0  0  0  0  0  0  0  0
   -5.2925   -3.9528    0.0000 C   0  0  0  0  0  0  0  0  0  0  0  0
   -4.8635   -5.3902    0.0000 C   0  0  0  0  0  0  0  0  0  0  0  0
   -3.4042   -5.7374    0.0000 C   0  0  0  0  0  0  0  0  0  0  0  0
   -2.3739   -4.6472    0.0000 C   0  0  0  0  0  0  0  0  0  0  0  0
   -1.6002    1.8452    0.0000 C   0  0  0  0  0  0  0  0  0  0  0  0
   -3.0595    2.1924    0.0000 C   0  0  0  0  0  0  0  0  0  0  0  0
   -3.4885    3.6298    0.0000 C   0  0  0  0  0  0  0  0  0  0  0  0
   -2.4582    4.7199    0.0000 C   0  0  0  0  0  0  0  0  0  0  0  0
   -2.8872    6.1573    0.0000 C   0  0  0  0  0  0  0  0  0  0  0  0
   -4.3464    6.5045    0.0000 C   0  0  0  0  0  0  0  0  0  0  0  0
   -5.3767    5.4143    0.0000 C   0  0  0  0  0  0  0  0  0  0  0  0
   -4.9478    3.9769    0.0000 C   0  0  0  0  0  0  0  0  0  0  0  0
  1  2  2  0
  2  3  1  0
  2 24  1  0
  3  4  1  0
  4  5  1  0
  4 15  1  0
  5  6  1  0
  6  7  1  0
  7  8  2  0
  7  9  1  0
  9 10  2  0
  9 14  1  0
 10 11  1  0
 11 12  2  0
 12 13  1  0
 13 14  2  0
 15 16  2  0
 15 17  1  0
 17 18  1  0
 18 19  1  0
 18 23  1  0
 19 20  1  0
 20 21  1  0
 21 22  1  0
 22 23  1  0
 24 25  2  0
 25 26  1  0
 26 27  2  0
 26 31  1  0
 27 28  1  0
 28 29  2  0
 29 30  1  0
 30 31  2  0
M  END
>  <s_m_entry_id>  (496) 
1182

>  <s_m_entry_name>  (496) 
3C-like_protease_GHDDI_ligprep.801

>  <s_m_Source_Path>  (496) 
/home/jgilaber/drug_learning/drug_learning/datasets/SAR1/GHDDI

>  <s_m_Source_File>  (496) 
3C-like_protease_GHDDI_ligprep.sdf

>  <i_m_Source_File_Index>  (496) 
801

>  <s_m_subgroup_title>  (496) 
3C-like_protease_GHDDI_ligprep

>  <s_m_subgroupid>  (496) 
3C-like_protease_GHDDI_ligprep

>  <b_m_subgroup_collapsed>  (496) 
0

$$$$
14044
     RDKit          2D

 31 32  0  0  1  0  0  0  0  0999 V2000
   -3.9445    2.8974    0.0000 C   0  0  0  0  0  0  0  0  0  0  0  0
   -3.0572    1.6880    0.0000 O   0  0  0  0  0  0  0  0  0  0  0  0
   -1.5662    1.8516    0.0000 C   0  0  0  0  0  0  0  0  0  0  0  0
   -0.9624    3.2247    0.0000 C   0  0  0  0  0  0  0  0  0  0  0  0
    0.5287    3.3884    0.0000 C   0  0  0  0  0  0  0  0  0  0  0  0
    1.4159    2.1789    0.0000 C   0  0  0  0  0  0  0  0  0  0  0  0
    2.9070    2.3425    0.0000 C   0  0  0  0  0  0  0  0  0  0  0  0
    3.5108    3.7156    0.0000 O   0  0  0  0  0  0  0  0  0  0  0  0
    3.7942    1.1331    0.0000 C   0  0  0  0  0  0  0  0  0  0  0  0
    5.2852    1.2967    0.0000 C   0  0  0  0  0  0  0  0  0  0  0  0
    6.1725    0.0873    0.0000 C   0  0  0  0  0  0  0  0  0  0  0  0
    5.5687   -1.2859    0.0000 C   0  0  0  0  0  0  0  0  0  0  0  0
    6.4559   -2.4953    0.0000 C   0  0  0  0  0  0  0  0  0  0  0  0
    7.9470   -2.3317    0.0000 C   0  0  0  0  0  0  0  0  0  0  0  0
    8.8342   -3.5411    0.0000 O   0  0  0  0  0  0  0  0  0  0  0  0
    8.5508   -0.9586    0.0000 C   0  0  0  0  0  0  0  0  0  0  0  0
    7.6635    0.2509    0.0000 C   0  0  0  0  0  0  0  0  0  0  0  0
    0.8121    0.8058    0.0000 C   0  0  0  0  0  0  0  0  0  0  0  0
    1.6993   -0.4037    0.0000 O   0  0  0  0  0  0  0  0  0  0  0  0
   -0.6789    0.6421    0.0000 C   0  0  0  0  0  0  0  0  0  0  0  0
   -1.2827   -0.7310    0.0000 C   0  0  0  0  0  0  0  0  0  0  0  0
   -2.7738   -0.8946    0.0000 C   0  0  0  0  0  0  0  0  0  0  0  0
   -3.3776   -2.2677    0.0000 C   0  0  0  0  0  0  0  0  0  0  0  0
   -2.4904   -3.4772    0.0000 C   0  0  0  0  0  0  0  0  0  0  0  0
   -4.8686   -2.4314    0.0000 C   0  0  0  0  0  0  0  0  0  0  0  0
   -5.7559   -1.2219    0.0000 C   0  0  0  0  0  0  0  0  0  0  0  0
   -7.2469   -1.3855    0.0000 C   0  0  0  0  0  0  0  0  0  0  0  0
   -7.8507   -2.7587    0.0000 O   0  0  0  0  0  0  0  0  0  0  0  0
   -8.1342   -0.1761    0.0000 C   0  0  0  0  0  0  0  0  0  0  0  0
   -7.5304    1.1970    0.0000 C   0  0  0  0  0  0  0  0  0  0  0  0
   -9.6252   -0.3397    0.0000 C   0  0  0  0  0  0  0  0  0  0  0  0
  1  2  1  0
  2  3  1  0
  3  4  2  0
  3 20  1  0
  4  5  1  0
  5  6  2  0
  6  7  1  0
  6 18  1  0
  7  8  2  0
  7  9  1  0
  9 10  2  0
 10 11  1  0
 11 12  2  0
 11 17  1  0
 12 13  1  0
 13 14  2  0
 14 15  1  0
 14 16  1  0
 16 17  2  0
 18 19  1  0
 18 20  2  0
 20 21  1  0
 21 22  1  0
 22 23  2  0
 23 24  1  0
 23 25  1  0
 25 26  1  0
 26 27  1  0
 27 28  1  0
 27 29  1  0
 29 30  2  0
 29 31  1  0
M  END
>  <s_m_entry_id>  (497) 
1184

>  <s_m_entry_name>  (497) 
3C-like_protease_GHDDI_ligprep.803

>  <s_m_Source_Path>  (497) 
/home/jgilaber/drug_learning/drug_learning/datasets/SAR1/GHDDI

>  <s_m_Source_File>  (497) 
3C-like_protease_GHDDI_ligprep.sdf

>  <i_m_Source_File_Index>  (497) 
803

>  <s_m_subgroup_title>  (497) 
3C-like_protease_GHDDI_ligprep

>  <s_m_subgroupid>  (497) 
3C-like_protease_GHDDI_ligprep

>  <b_m_subgroup_collapsed>  (497) 
0

$$$$
14045
     RDKit          2D

 48 49  0  0  1  0  0  0  0  0999 V2000
   -2.4291  -10.5461    0.0000 C   0  0  0  0  0  0  0  0  0  0  0  0
   -1.1045   -9.8423    0.0000 C   0  0  0  0  0  0  0  0  0  0  0  0
   -1.0518   -8.3432    0.0000 C   0  0  0  0  0  0  0  0  0  0  0  0
    0.2728   -7.6393    0.0000 O   0  0  0  0  0  0  0  0  0  0  0  0
    0.3256   -6.1402    0.0000 C   0  0  0  0  0  0  0  0  0  0  0  0
   -0.9463   -5.3450    0.0000 O   0  0  0  0  0  0  0  0  0  0  0  0
    1.6502   -5.4364    0.0000 C   0  0  0  0  0  0  0  0  0  0  0  0
    1.7029   -3.9373    0.0000 N   0  0  0  0  0  0  0  0  0  0  0  0
    3.0275   -3.2334    0.0000 C   0  0  0  0  0  0  0  0  0  0  0  0
    4.2994   -4.0286    0.0000 O   0  0  0  0  0  0  0  0  0  0  0  0
    3.0803   -1.7344    0.0000 C   0  0  0  0  0  0  0  0  0  0  0  0
    4.4049   -1.0305    0.0000 C   0  0  0  0  0  0  0  0  0  0  0  0
    4.4576    0.4686    0.0000 S   0  0  0  0  0  0  0  0  0  0  0  0
    5.7822    1.1724    0.0000 C   0  0  0  0  0  0  0  0  0  0  0  0
    7.0541    0.3772    0.0000 C   0  0  0  0  0  0  0  0  0  0  0  0
    8.3787    1.0811    0.0000 C   0  0  0  0  0  0  0  0  0  0  0  0
    8.4314    2.5802    0.0000 C   0  0  0  0  0  0  0  0  0  0  0  0
    7.1596    3.3754    0.0000 C   0  0  0  0  0  0  0  0  0  0  0  0
    5.8350    2.6715    0.0000 C   0  0  0  0  0  0  0  0  0  0  0  0
    4.5631    3.4667    0.0000 N   0  0  0  0  0  0  0  0  0  0  0  0
    3.2385    2.7628    0.0000 O   0  0  0  0  0  0  0  0  0  0  0  0
    4.6158    4.9658    0.0000 O   0  0  0  0  0  0  0  0  0  0  0  0
    9.7560    3.2840    0.0000 N   0  0  0  0  0  0  0  0  0  0  0  0
    9.8088    4.7831    0.0000 O   0  0  0  0  0  0  0  0  0  0  0  0
   11.0279    2.4888    0.0000 O   0  0  0  0  0  0  0  0  0  0  0  0
    1.8084   -0.9392    0.0000 N   0  0  0  0  0  0  0  0  0  0  0  0
    0.4838   -1.6430    0.0000 C   0  0  0  0  0  0  0  0  0  0  0  0
    0.4311   -3.1421    0.0000 O   0  0  0  0  0  0  0  0  0  0  0  0
   -0.7881   -0.8478    0.0000 C   0  0  0  0  0  0  0  0  0  0  0  0
   -2.1127   -1.5517    0.0000 C   0  0  0  0  0  0  0  0  0  0  0  0
   -3.3845   -0.7565    0.0000 C   0  0  0  0  0  0  0  0  0  0  0  0
   -3.3318    0.7426    0.0000 N   0  0  0  0  0  0  0  0  0  0  0  0
   -4.6037    1.5378    0.0000 C   0  0  0  0  0  0  0  0  0  0  0  0
   -5.9283    0.8339    0.0000 O   0  0  0  0  0  0  0  0  0  0  0  0
   -4.5509    3.0369    0.0000 O   0  0  0  0  0  0  0  0  0  0  0  0
   -5.8228    3.8321    0.0000 C   0  0  0  0  0  0  0  0  0  0  0  0
   -5.7701    5.3312    0.0000 C   0  0  0  0  0  0  0  0  0  0  0  0
   -4.4455    6.0350    0.0000 C   0  0  0  0  0  0  0  0  0  0  0  0
   -4.3927    7.5341    0.0000 C   0  0  0  0  0  0  0  0  0  0  0  0
   -5.6646    8.3293    0.0000 C   0  0  0  0  0  0  0  0  0  0  0  0
   -6.9892    7.6254    0.0000 C   0  0  0  0  0  0  0  0  0  0  0  0
   -7.0419    6.1264    0.0000 C   0  0  0  0  0  0  0  0  0  0  0  0
   -4.7091   -1.4603    0.0000 C   0  0  0  0  0  0  0  0  0  0  0  0
   -4.7619   -2.9594    0.0000 O   0  0  0  0  0  0  0  0  0  0  0  0
   -5.9810   -0.6651    0.0000 O   0  0  0  0  0  0  0  0  0  0  0  0
   -7.3056   -1.3690    0.0000 C   0  0  0  0  0  0  0  0  0  0  0  0
   -8.5775   -0.5738    0.0000 C   0  0  0  0  0  0  0  0  0  0  0  0
   -9.9021   -1.2777    0.0000 C   0  0  0  0  0  0  0  0  0  0  0  0
  1  2  1  0
  2  3  1  0
  3  4  1  0
  4  5  1  0
  5  6  2  0
  5  7  1  0
  7  8  1  0
  8  9  1  0
  9 10  2  0
  9 11  1  0
 11 12  1  0
 11 26  1  0
 12 13  1  0
 13 14  1  0
 14 15  2  0
 14 19  1  0
 15 16  1  0
 16 17  2  0
 17 18  1  0
 17 23  1  0
 18 19  2  0
 19 20  1  0
 20 21  2  0
 20 22  1  0
 23 24  2  0
 23 25  1  0
 26 27  1  0
 27 28  2  0
 27 29  1  0
 29 30  1  0
 30 31  1  0
 31 32  1  0
 31 43  1  0
 32 33  1  0
 33 34  2  0
 33 35  1  0
 35 36  1  0
 36 37  1  0
 37 38  2  0
 37 42  1  0
 38 39  1  0
 39 40  2  0
 40 41  1  0
 41 42  2  0
 43 44  2  0
 43 45  1  0
 45 46  1  0
 46 47  1  0
 47 48  1  0
M  CHG  4  20   1  22  -1  23   1  25  -1
M  END
>  <s_m_entry_id>  (498) 
1187

>  <s_m_entry_name>  (498) 
3C-like_protease_GHDDI_ligprep.806

>  <s_m_Source_Path>  (498) 
/home/jgilaber/drug_learning/drug_learning/datasets/SAR1/GHDDI

>  <s_m_Source_File>  (498) 
3C-like_protease_GHDDI_ligprep.sdf

>  <i_m_Source_File_Index>  (498) 
806

>  <s_m_subgroup_title>  (498) 
3C-like_protease_GHDDI_ligprep

>  <s_m_subgroupid>  (498) 
3C-like_protease_GHDDI_ligprep

>  <b_m_subgroup_collapsed>  (498) 
0

$$$$
14046
     RDKit          2D

 35 39  0  0  1  0  0  0  0  0999 V2000
    1.1020   -5.0182    0.0000 O   0  0  0  0  0  0  0  0  0  0  0  0
   -0.3634   -4.6979    0.0000 C   0  0  0  0  0  0  0  0  0  0  0  0
   -0.8186   -3.2687    0.0000 C   0  0  0  0  0  0  0  0  0  0  0  0
   -2.2840   -2.9483    0.0000 C   0  0  0  0  0  0  0  0  0  0  0  0
   -3.2942   -4.0573    0.0000 C   0  0  0  0  0  0  0  0  0  0  0  0
   -2.9908   -5.5262    0.0000 C   0  0  0  0  0  0  0  0  0  0  0  0
   -4.2941   -6.2687    0.0000 N   0  0  0  0  0  0  0  0  0  0  0  0
   -5.4030   -5.2586    0.0000 C   0  0  0  0  0  0  0  0  0  0  0  0
   -4.7850   -3.8918    0.0000 N   0  0  0  0  0  0  0  0  0  0  0  0
    0.1915   -2.1598    0.0000 N   0  0  0  0  0  0  0  0  0  0  0  0
    1.6569   -2.4801    0.0000 C   0  0  0  0  0  0  0  0  0  0  0  0
    2.6670   -1.3712    0.0000 C   0  0  0  0  0  0  0  0  0  0  0  0
    4.1324   -1.6915    0.0000 C   0  0  0  0  0  0  0  0  0  0  0  0
    5.1425   -0.5826    0.0000 C   0  0  0  0  0  0  0  0  0  0  0  0
    6.6079   -0.9030    0.0000 C   0  0  0  0  0  0  0  0  0  0  0  0
    7.6180    0.2059    0.0000 C   0  0  0  0  0  0  0  0  0  0  0  0
    7.1627    1.6352    0.0000 C   0  0  0  0  0  0  0  0  0  0  0  0
    5.6973    1.9555    0.0000 C   0  0  0  0  0  0  0  0  0  0  0  0
    4.6872    0.8466    0.0000 C   0  0  0  0  0  0  0  0  0  0  0  0
    3.2218    1.1669    0.0000 C   0  0  0  0  0  0  0  0  0  0  0  0
    2.2117    0.0580    0.0000 N   0  0  0  0  0  0  0  0  0  0  0  0
    0.7463    0.3784    0.0000 C   0  0  0  0  0  0  0  0  0  0  0  0
   -0.2638   -0.7305    0.0000 O   0  0  0  0  0  0  0  0  0  0  0  0
    0.2910    1.8076    0.0000 C   0  0  0  0  0  0  0  0  0  0  0  0
    1.3011    2.9165    0.0000 C   0  0  0  0  0  0  0  0  0  0  0  0
    0.8459    4.3457    0.0000 C   0  0  0  0  0  0  0  0  0  0  0  0
   -0.6195    4.6661    0.0000 C   0  0  0  0  0  0  0  0  0  0  0  0
   -1.6297    3.5572    0.0000 C   0  0  0  0  0  0  0  0  0  0  0  0
   -1.1744    2.1279    0.0000 C   0  0  0  0  0  0  0  0  0  0  0  0
   -3.0951    3.8775    0.0000 C   0  0  0  0  0  0  0  0  0  0  0  0
   -3.5503    5.3067    0.0000 C   0  0  0  0  0  0  0  0  0  0  0  0
   -5.0157    5.6271    0.0000 C   0  0  0  0  0  0  0  0  0  0  0  0
   -6.0258    4.5182    0.0000 C   0  0  0  0  0  0  0  0  0  0  0  0
   -5.5706    3.0889    0.0000 C   0  0  0  0  0  0  0  0  0  0  0  0
   -4.1052    2.7686    0.0000 C   0  0  0  0  0  0  0  0  0  0  0  0
  1  2  1  0
  2  3  2  0
  3  4  1  0
  3 10  1  0
  4  5  1  0
  5  6  2  0
  5  9  1  0
  6  7  1  0
  7  8  1  0
  8  9  2  0
 10 11  1  0
 11 12  1  0
 12 13  1  0
 12 21  1  0
 13 14  1  0
 14 15  1  0
 14 19  1  0
 15 16  1  0
 16 17  1  0
 17 18  1  0
 18 19  1  0
 19 20  1  0
 20 21  1  0
 21 22  1  0
 22 23  2  0
 22 24  1  0
 24 25  2  0
 24 29  1  0
 25 26  1  0
 26 27  2  0
 27 28  1  0
 28 29  2  0
 28 30  1  0
 30 31  2  0
 30 35  1  0
 31 32  1  0
 32 33  2  0
 33 34  1  0
 34 35  2  0
M  CHG  2   1  -1  10   1
M  END
>  <s_m_entry_id>  (499) 
1191

>  <s_m_entry_name>  (499) 
3C-like_protease_GHDDI_ligprep.810

>  <s_m_Source_Path>  (499) 
/home/jgilaber/drug_learning/drug_learning/datasets/SAR1/GHDDI

>  <s_m_Source_File>  (499) 
3C-like_protease_GHDDI_ligprep.sdf

>  <i_m_Source_File_Index>  (499) 
810

>  <s_m_subgroup_title>  (499) 
3C-like_protease_GHDDI_ligprep

>  <s_m_subgroupid>  (499) 
3C-like_protease_GHDDI_ligprep

>  <b_m_subgroup_collapsed>  (499) 
0

$$$$
14047
     RDKit          2D

 35 39  0  0  1  0  0  0  0  0999 V2000
   -1.2291   -4.1938    0.0000 O   0  0  0  0  0  0  0  0  0  0  0  0
   -2.3762   -3.2273    0.0000 C   0  0  0  0  0  0  0  0  0  0  0  0
   -2.1126   -1.7506    0.0000 C   0  0  0  0  0  0  0  0  0  0  0  0
   -3.2597   -0.7840    0.0000 C   0  0  0  0  0  0  0  0  0  0  0  0
   -4.6703   -1.2941    0.0000 C   0  0  0  0  0  0  0  0  0  0  0  0
   -5.0867   -2.7351    0.0000 C   0  0  0  0  0  0  0  0  0  0  0  0
   -6.5859   -2.7843    0.0000 N   0  0  0  0  0  0  0  0  0  0  0  0
   -7.0960   -1.3737    0.0000 C   0  0  0  0  0  0  0  0  0  0  0  0
   -5.9121   -0.4527    0.0000 N   0  0  0  0  0  0  0  0  0  0  0  0
   -0.7020   -1.2405    0.0000 N   0  0  0  0  0  0  0  0  0  0  0  0
    0.4450   -2.2071    0.0000 C   0  0  0  0  0  0  0  0  0  0  0  0
    1.8557   -1.6970    0.0000 C   0  0  0  0  0  0  0  0  0  0  0  0
    3.0027   -2.6636    0.0000 C   0  0  0  0  0  0  0  0  0  0  0  0
    4.4133   -2.1535    0.0000 C   0  0  0  0  0  0  0  0  0  0  0  0
    5.5604   -3.1201    0.0000 C   0  0  0  0  0  0  0  0  0  0  0  0
    6.9710   -2.6101    0.0000 C   0  0  0  0  0  0  0  0  0  0  0  0
    7.2345   -1.1334    0.0000 C   0  0  0  0  0  0  0  0  0  0  0  0
    6.0875   -0.1668    0.0000 C   0  0  0  0  0  0  0  0  0  0  0  0
    4.6769   -0.6769    0.0000 C   0  0  0  0  0  0  0  0  0  0  0  0
    3.5298    0.2897    0.0000 C   0  0  0  0  0  0  0  0  0  0  0  0
    2.1192   -0.2204    0.0000 N   0  0  0  0  0  0  0  0  0  0  0  0
    0.9722    0.7462    0.0000 C   0  0  0  0  0  0  0  0  0  0  0  0
   -0.4384    0.2361    0.0000 O   0  0  0  0  0  0  0  0  0  0  0  0
    1.2357    2.2229    0.0000 C   0  0  0  0  0  0  0  0  0  0  0  0
    2.6464    2.7330    0.0000 C   0  0  0  0  0  0  0  0  0  0  0  0
    2.9099    4.2096    0.0000 C   0  0  0  0  0  0  0  0  0  0  0  0
    1.7629    5.1762    0.0000 C   0  0  0  0  0  0  0  0  0  0  0  0
    0.3523    4.6661    0.0000 C   0  0  0  0  0  0  0  0  0  0  0  0
    0.0887    3.1895    0.0000 C   0  0  0  0  0  0  0  0  0  0  0  0
   -1.3219    2.6794    0.0000 C   0  0  0  0  0  0  0  0  0  0  0  0
   -2.4689    3.6460    0.0000 C   0  0  0  0  0  0  0  0  0  0  0  0
   -3.8796    3.1359    0.0000 C   0  0  0  0  0  0  0  0  0  0  0  0
   -4.1431    1.6592    0.0000 C   0  0  0  0  0  0  0  0  0  0  0  0
   -2.9961    0.6926    0.0000 C   0  0  0  0  0  0  0  0  0  0  0  0
   -1.5855    1.2027    0.0000 C   0  0  0  0  0  0  0  0  0  0  0  0
  1  2  1  0
  2  3  2  0
  3  4  1  0
  3 10  1  0
  4  5  1  0
  5  6  2  0
  5  9  1  0
  6  7  1  0
  7  8  1  0
  8  9  2  0
 10 11  1  0
 11 12  1  0
 12 13  1  0
 12 21  1  0
 13 14  1  0
 14 15  1  0
 14 19  1  0
 15 16  1  0
 16 17  1  0
 17 18  1  0
 18 19  1  0
 19 20  1  0
 20 21  1  0
 21 22  1  0
 22 23  2  0
 22 24  1  0
 24 25  2  0
 24 29  1  0
 25 26  1  0
 26 27  2  0
 27 28  1  0
 28 29  2  0
 29 30  1  0
 30 31  2  0
 30 35  1  0
 31 32  1  0
 32 33  2  0
 33 34  1  0
 34 35  2  0
M  CHG  2   1  -1  10   1
M  END
>  <s_m_entry_id>  (500) 
1193

>  <s_m_entry_name>  (500) 
3C-like_protease_GHDDI_ligprep.812

>  <s_m_Source_Path>  (500) 
/home/jgilaber/drug_learning/drug_learning/datasets/SAR1/GHDDI

>  <s_m_Source_File>  (500) 
3C-like_protease_GHDDI_ligprep.sdf

>  <i_m_Source_File_Index>  (500) 
812

>  <s_m_subgroup_title>  (500) 
3C-like_protease_GHDDI_ligprep

>  <s_m_subgroupid>  (500) 
3C-like_protease_GHDDI_ligprep

>  <b_m_subgroup_collapsed>  (500) 
0

$$$$
14050
     RDKit          2D

 22 24  0  0  1  0  0  0  0  0999 V2000
    5.8043   -1.7045    0.0000 C   0  0  0  0  0  0  0  0  0  0  0  0
    5.2785   -0.2997    0.0000 C   0  0  0  0  0  0  0  0  0  0  0  0
    6.2322    0.8581    0.0000 C   0  0  0  0  0  0  0  0  0  0  0  0
    3.7990   -0.0526    0.0000 C   0  0  0  0  0  0  0  0  0  0  0  0
    2.8453   -1.2104    0.0000 C   0  0  0  0  0  0  0  0  0  0  0  0
    1.3658   -0.9634    0.0000 C   0  0  0  0  0  0  0  0  0  0  0  0
    0.4121   -2.1212    0.0000 C   0  0  0  0  0  0  0  0  0  0  0  0
   -1.0674   -1.8741    0.0000 C   0  0  0  0  0  0  0  0  0  0  0  0
   -1.5932   -0.4693    0.0000 C   0  0  0  0  0  0  0  0  0  0  0  0
   -0.6395    0.6885    0.0000 C   0  0  0  0  0  0  0  0  0  0  0  0
    0.3142    1.8463    0.0000 C   0  0  0  0  0  0  0  0  0  0  0  0
   -1.1654    2.0933    0.0000 C   0  0  0  0  0  0  0  0  0  0  0  0
   -2.6449    2.3403    0.0000 C   0  0  0  0  0  0  0  0  0  0  0  0
   -3.5986    1.1826    0.0000 C   0  0  0  0  0  0  0  0  0  0  0  0
   -3.0728   -0.2223    0.0000 C   0  0  0  0  0  0  0  0  0  0  0  0
   -3.0591   -1.7222    0.0000 C   0  0  0  0  0  0  0  0  0  0  0  0
   -4.5475   -0.4961    0.0000 C   0  0  0  0  0  0  0  0  0  0  0  0
   -5.0477   -1.9103    0.0000 O   0  0  0  0  0  0  0  0  0  0  0  0
   -5.5221    0.6441    0.0000 O   0  0  0  0  0  0  0  0  0  0  0  0
    0.8400    0.4414    0.0000 C   0  0  0  0  0  0  0  0  0  0  0  0
    1.7937    1.5992    0.0000 C   0  0  0  0  0  0  0  0  0  0  0  0
    3.2732    1.3522    0.0000 C   0  0  0  0  0  0  0  0  0  0  0  0
  1  2  1  0
  2  3  1  0
  2  4  1  0
  4  5  2  0
  4 22  1  0
  5  6  1  0
  6  7  2  0
  6 20  1  0
  7  8  1  0
  8  9  1  0
  9 10  1  0
  9 15  1  0
 10 11  1  0
 10 12  1  0
 10 20  1  0
 12 13  1  0
 13 14  1  0
 14 15  1  0
 15 16  1  0
 15 17  1  0
 17 18  2  0
 17 19  1  0
 20 21  1  0
 21 22  1  0
M  CHG  1  19  -1
M  END
>  <s_m_entry_id>  (501) 
1197

>  <s_m_entry_name>  (501) 
3C-like_protease_GHDDI_ligprep.816

>  <s_m_Source_Path>  (501) 
/home/jgilaber/drug_learning/drug_learning/datasets/SAR1/GHDDI

>  <s_m_Source_File>  (501) 
3C-like_protease_GHDDI_ligprep.sdf

>  <i_m_Source_File_Index>  (501) 
816

>  <s_m_subgroup_title>  (501) 
3C-like_protease_GHDDI_ligprep

>  <s_m_subgroupid>  (501) 
3C-like_protease_GHDDI_ligprep

>  <b_m_subgroup_collapsed>  (501) 
0

$$$$
14051
     RDKit          2D

 27 31  0  0  1  0  0  0  0  0999 V2000
    7.5000   -0.8660    0.0000 O   0  0  0  0  0  0  0  0  0  0  0  0
    6.0000   -0.8660    0.0000 C   0  0  0  0  0  0  0  0  0  0  0  0
    5.2500   -2.1651    0.0000 C   0  0  0  0  0  0  0  0  0  0  0  0
    3.7500   -2.1651    0.0000 C   0  0  0  0  0  0  0  0  0  0  0  0
    3.0000   -3.4641    0.0000 O   0  0  0  0  0  0  0  0  0  0  0  0
    3.0000   -0.8660    0.0000 C   0  0  0  0  0  0  0  0  0  0  0  0
    1.5000   -0.8660    0.0000 O   0  0  0  0  0  0  0  0  0  0  0  0
    0.7500    0.4330    0.0000 C   0  0  0  0  0  0  0  0  0  0  0  0
    1.5000    1.7321    0.0000 C   0  0  0  0  0  0  0  0  0  0  0  0
    3.0000    1.7321    0.0000 O   0  0  0  0  0  0  0  0  0  0  0  0
    3.7500    0.4330    0.0000 C   0  0  0  0  0  0  0  0  0  0  0  0
    5.2500    0.4330    0.0000 C   0  0  0  0  0  0  0  0  0  0  0  0
    0.7500    3.0311    0.0000 C   0  0  0  0  0  0  0  0  0  0  0  0
    1.5000    4.3301    0.0000 O   0  0  0  0  0  0  0  0  0  0  0  0
   -0.7500    3.0311    0.0000 C   0  0  0  0  0  0  0  0  0  0  0  0
   -1.5000    1.7321    0.0000 C   0  0  0  0  0  0  0  0  0  0  0  0
   -3.0000    1.7321    0.0000 O   0  0  0  0  0  0  0  0  0  0  0  0
   -3.7500    0.4330    0.0000 C   0  0  0  0  0  0  0  0  0  0  0  0
   -5.2500    0.4330    0.0000 C   0  0  0  0  0  0  0  0  0  0  0  0
   -6.0000    1.7321    0.0000 O   0  0  0  0  0  0  0  0  0  0  0  0
   -6.0000   -0.8660    0.0000 C   0  0  0  0  0  0  0  0  0  0  0  0
   -5.2500   -2.1651    0.0000 C   0  0  0  0  0  0  0  0  0  0  0  0
   -6.0000   -3.4641    0.0000 O   0  0  0  0  0  0  0  0  0  0  0  0
   -3.7500   -2.1651    0.0000 C   0  0  0  0  0  0  0  0  0  0  0  0
   -3.0000   -0.8660    0.0000 C   0  0  0  0  0  0  0  0  0  0  0  0
   -1.5000   -0.8660    0.0000 O   0  0  0  0  0  0  0  0  0  0  0  0
   -0.7500    0.4330    0.0000 C   0  0  0  0  0  0  0  0  0  0  0  0
  1  2  1  0
  2  3  2  0
  2 12  1  0
  3  4  1  0
  4  5  1  0
  4  6  2  0
  6  7  1  0
  6 11  1  0
  7  8  1  0
  8  9  2  0
  8 27  1  0
  9 10  1  0
  9 13  1  0
 10 11  1  0
 11 12  2  0
 13 14  1  0
 13 15  2  0
 15 16  1  0
 16 17  1  0
 16 27  2  0
 17 18  1  0
 18 19  1  0
 18 25  2  0
 19 20  1  0
 19 21  2  0
 21 22  1  0
 22 23  1  0
 22 24  2  0
 24 25  1  0
 25 26  1  0
 26 27  1  0
M  END
>  <s_m_entry_id>  (502) 
1198

>  <s_m_entry_name>  (502) 
3C-like_protease_GHDDI_ligprep.817

>  <s_m_Source_Path>  (502) 
/home/jgilaber/drug_learning/drug_learning/datasets/SAR1/GHDDI

>  <s_m_Source_File>  (502) 
3C-like_protease_GHDDI_ligprep.sdf

>  <i_m_Source_File_Index>  (502) 
817

>  <s_m_subgroup_title>  (502) 
3C-like_protease_GHDDI_ligprep

>  <s_m_subgroupid>  (502) 
3C-like_protease_GHDDI_ligprep

>  <b_m_subgroup_collapsed>  (502) 
0

$$$$
14054
     RDKit          2D

 35 37  0  0  1  0  0  0  0  0999 V2000
  -10.8510    0.6514    0.0000 C   0  0  0  0  0  0  0  0  0  0  0  0
   -9.8392   -0.4560    0.0000 O   0  0  0  0  0  0  0  0  0  0  0  0
   -8.3743   -0.1335    0.0000 C   0  0  0  0  0  0  0  0  0  0  0  0
   -7.9211    1.2964    0.0000 C   0  0  0  0  0  0  0  0  0  0  0  0
   -6.4562    1.6190    0.0000 C   0  0  0  0  0  0  0  0  0  0  0  0
   -5.4445    0.5116    0.0000 C   0  0  0  0  0  0  0  0  0  0  0  0
   -3.9795    0.8341    0.0000 C   0  0  0  0  0  0  0  0  0  0  0  0
   -2.9678   -0.2733    0.0000 C   0  0  0  0  0  0  0  0  0  0  0  0
   -1.5029    0.0492    0.0000 C   0  0  0  0  0  0  0  0  0  0  0  0
   -1.0497    1.4791    0.0000 O   0  0  0  0  0  0  0  0  0  0  0  0
   -0.4911   -1.0582    0.0000 N   0  0  0  0  0  0  0  0  0  0  0  0
    0.9738   -0.7357    0.0000 C   0  0  0  0  0  0  0  0  0  0  0  0
    1.9856   -1.8431    0.0000 C   0  0  0  0  0  0  0  0  0  0  0  0
    3.4505   -1.5206    0.0000 O   0  0  0  0  0  0  0  0  0  0  0  0
    4.4623   -2.6280    0.0000 C   0  0  0  0  0  0  0  0  0  0  0  0
    4.0091   -4.0579    0.0000 O   0  0  0  0  0  0  0  0  0  0  0  0
    5.9272   -2.3055    0.0000 C   0  0  0  0  0  0  0  0  0  0  0  0
    6.9389   -3.4129    0.0000 C   0  0  0  0  0  0  0  0  0  0  0  0
    8.4039   -3.0904    0.0000 C   0  0  0  0  0  0  0  0  0  0  0  0
    8.8570   -1.6605    0.0000 C   0  0  0  0  0  0  0  0  0  0  0  0
    7.8453   -0.5531    0.0000 C   0  0  0  0  0  0  0  0  0  0  0  0
    6.3803   -0.8756    0.0000 C   0  0  0  0  0  0  0  0  0  0  0  0
    1.4270    0.6942    0.0000 C   0  0  0  0  0  0  0  0  0  0  0  0
    0.4152    1.8016    0.0000 O   0  0  0  0  0  0  0  0  0  0  0  0
    2.8919    1.0167    0.0000 N   0  0  0  0  0  0  0  0  0  0  0  0
    3.3450    2.4466    0.0000 C   0  0  0  0  0  0  0  0  0  0  0  0
    4.8100    2.7691    0.0000 C   0  0  0  0  0  0  0  0  0  0  0  0
    5.2631    4.1990    0.0000 C   0  0  0  0  0  0  0  0  0  0  0  0
    4.2514    5.3064    0.0000 C   0  0  0  0  0  0  0  0  0  0  0  0
    2.7864    4.9839    0.0000 C   0  0  0  0  0  0  0  0  0  0  0  0
    2.3333    3.5540    0.0000 C   0  0  0  0  0  0  0  0  0  0  0  0
   -5.8976   -0.9184    0.0000 C   0  0  0  0  0  0  0  0  0  0  0  0
   -7.3625   -1.2409    0.0000 C   0  0  0  0  0  0  0  0  0  0  0  0
   -7.8157   -2.6708    0.0000 O   0  0  0  0  0  0  0  0  0  0  0  0
   -6.8039   -3.7782    0.0000 C   0  0  0  0  0  0  0  0  0  0  0  0
  1  2  1  0
  2  3  1  0
  3  4  2  0
  3 33  1  0
  4  5  1  0
  5  6  2  0
  6  7  1  0
  6 32  1  0
  7  8  2  0
  8  9  1  0
  9 10  2  0
  9 11  1  0
 11 12  1  0
 12 13  1  0
 12 23  1  0
 13 14  1  0
 14 15  1  0
 15 16  2  0
 15 17  1  0
 17 18  2  0
 17 22  1  0
 18 19  1  0
 19 20  2  0
 20 21  1  0
 21 22  2  0
 23 24  2  0
 23 25  1  0
 25 26  1  0
 26 27  1  0
 26 31  1  0
 27 28  1  0
 28 29  1  0
 29 30  1  0
 30 31  1  0
 32 33  2  0
 33 34  1  0
 34 35  1  0
M  END
>  <s_m_entry_id>  (503) 
1202

>  <s_m_entry_name>  (503) 
3C-like_protease_GHDDI_ligprep.821

>  <s_m_Source_Path>  (503) 
/home/jgilaber/drug_learning/drug_learning/datasets/SAR1/GHDDI

>  <s_m_Source_File>  (503) 
3C-like_protease_GHDDI_ligprep.sdf

>  <i_m_Source_File_Index>  (503) 
821

>  <s_m_subgroup_title>  (503) 
3C-like_protease_GHDDI_ligprep

>  <s_m_subgroupid>  (503) 
3C-like_protease_GHDDI_ligprep

>  <b_m_subgroup_collapsed>  (503) 
0

$$$$
14055
     RDKit          2D

 33 35  0  0  1  0  0  0  0  0999 V2000
   -6.0114   -3.6285    0.0000 C   0  0  0  0  0  0  0  0  0  0  0  0
   -5.5937   -2.1879    0.0000 O   0  0  0  0  0  0  0  0  0  0  0  0
   -6.6325   -1.1058    0.0000 C   0  0  0  0  0  0  0  0  0  0  0  0
   -8.0890   -1.4644    0.0000 C   0  0  0  0  0  0  0  0  0  0  0  0
   -9.1278   -0.3823    0.0000 C   0  0  0  0  0  0  0  0  0  0  0  0
   -8.7101    1.0584    0.0000 C   0  0  0  0  0  0  0  0  0  0  0  0
   -7.2536    1.4170    0.0000 C   0  0  0  0  0  0  0  0  0  0  0  0
   -6.2148    0.3349    0.0000 C   0  0  0  0  0  0  0  0  0  0  0  0
   -4.7583    0.6934    0.0000 C   0  0  0  0  0  0  0  0  0  0  0  0
   -3.7195   -0.3887    0.0000 C   0  0  0  0  0  0  0  0  0  0  0  0
   -2.2630   -0.0301    0.0000 C   0  0  0  0  0  0  0  0  0  0  0  0
   -1.8452    1.4106    0.0000 O   0  0  0  0  0  0  0  0  0  0  0  0
   -1.2242   -1.1122    0.0000 N   0  0  0  0  0  0  0  0  0  0  0  0
    0.2323   -0.7536    0.0000 C   0  0  0  0  0  0  0  0  0  0  0  0
    1.2711   -1.8357    0.0000 C   0  0  0  0  0  0  0  0  0  0  0  0
    2.7276   -1.4771    0.0000 O   0  0  0  0  0  0  0  0  0  0  0  0
    3.7664   -2.5592    0.0000 C   0  0  0  0  0  0  0  0  0  0  0  0
    3.3487   -3.9999    0.0000 O   0  0  0  0  0  0  0  0  0  0  0  0
    5.2229   -2.2006    0.0000 C   0  0  0  0  0  0  0  0  0  0  0  0
    6.2617   -3.2827    0.0000 C   0  0  0  0  0  0  0  0  0  0  0  0
    7.7182   -2.9242    0.0000 C   0  0  0  0  0  0  0  0  0  0  0  0
    8.1360   -1.4835    0.0000 C   0  0  0  0  0  0  0  0  0  0  0  0
    7.0972   -0.4014    0.0000 C   0  0  0  0  0  0  0  0  0  0  0  0
    5.6407   -0.7600    0.0000 C   0  0  0  0  0  0  0  0  0  0  0  0
    0.6501    0.6871    0.0000 C   0  0  0  0  0  0  0  0  0  0  0  0
   -0.3887    1.7691    0.0000 O   0  0  0  0  0  0  0  0  0  0  0  0
    2.1066    1.0456    0.0000 N   0  0  0  0  0  0  0  0  0  0  0  0
    2.5243    2.4863    0.0000 C   0  0  0  0  0  0  0  0  0  0  0  0
    3.9808    2.8449    0.0000 C   0  0  0  0  0  0  0  0  0  0  0  0
    4.3985    4.2855    0.0000 C   0  0  0  0  0  0  0  0  0  0  0  0
    3.3598    5.3676    0.0000 C   0  0  0  0  0  0  0  0  0  0  0  0
    1.9032    5.0090    0.0000 C   0  0  0  0  0  0  0  0  0  0  0  0
    1.4855    3.5684    0.0000 C   0  0  0  0  0  0  0  0  0  0  0  0
  1  2  1  0
  2  3  1  0
  3  4  2  0
  3  8  1  0
  4  5  1  0
  5  6  2  0
  6  7  1  0
  7  8  2  0
  8  9  1  0
  9 10  2  0
 10 11  1  0
 11 12  2  0
 11 13  1  0
 13 14  1  0
 14 15  1  0
 14 25  1  0
 15 16  1  0
 16 17  1  0
 17 18  2  0
 17 19  1  0
 19 20  2  0
 19 24  1  0
 20 21  1  0
 21 22  2  0
 22 23  1  0
 23 24  2  0
 25 26  2  0
 25 27  1  0
 27 28  1  0
 28 29  1  0
 28 33  1  0
 29 30  1  0
 30 31  1  0
 31 32  1  0
 32 33  1  0
M  END
>  <s_m_entry_id>  (504) 
1203

>  <s_m_entry_name>  (504) 
3C-like_protease_GHDDI_ligprep.822

>  <s_m_Source_Path>  (504) 
/home/jgilaber/drug_learning/drug_learning/datasets/SAR1/GHDDI

>  <s_m_Source_File>  (504) 
3C-like_protease_GHDDI_ligprep.sdf

>  <i_m_Source_File_Index>  (504) 
822

>  <s_m_subgroup_title>  (504) 
3C-like_protease_GHDDI_ligprep

>  <s_m_subgroupid>  (504) 
3C-like_protease_GHDDI_ligprep

>  <b_m_subgroup_collapsed>  (504) 
0

$$$$
14058
     RDKit          2D

 27 29  0  0  1  0  0  0  0  0999 V2000
    7.5000   -0.8660    0.0000 O   0  0  0  0  0  0  0  0  0  0  0  0
    6.0000   -0.8660    0.0000 C   0  0  0  0  0  0  0  0  0  0  0  0
    5.2500   -2.1651    0.0000 C   0  0  0  0  0  0  0  0  0  0  0  0
    3.7500   -2.1651    0.0000 C   0  0  0  0  0  0  0  0  0  0  0  0
    3.0000   -3.4641    0.0000 O   0  0  0  0  0  0  0  0  0  0  0  0
    3.0000   -0.8660    0.0000 C   0  0  0  0  0  0  0  0  0  0  0  0
    1.5000   -0.8660    0.0000 O   0  0  0  0  0  0  0  0  0  0  0  0
    0.7500    0.4330    0.0000 C   0  0  0  0  0  0  0  0  0  0  0  0
    1.5000    1.7321    0.0000 C   0  0  0  0  0  0  0  0  0  0  0  0
    0.7500    3.0311    0.0000 C   0  0  0  0  0  0  0  0  0  0  0  0
    1.5000    4.3301    0.0000 O   0  0  0  0  0  0  0  0  0  0  0  0
   -0.7500    3.0311    0.0000 C   0  0  0  0  0  0  0  0  0  0  0  0
   -1.5000    1.7321    0.0000 C   0  0  0  0  0  0  0  0  0  0  0  0
   -3.0000    1.7321    0.0000 O   0  0  0  0  0  0  0  0  0  0  0  0
   -0.7500    0.4330    0.0000 C   0  0  0  0  0  0  0  0  0  0  0  0
   -1.5000   -0.8660    0.0000 O   0  0  0  0  0  0  0  0  0  0  0  0
   -3.0000   -0.8660    0.0000 C   0  0  0  0  0  0  0  0  0  0  0  0
   -3.7500    0.4330    0.0000 C   0  0  0  0  0  0  0  0  0  0  0  0
   -5.2500    0.4330    0.0000 C   0  0  0  0  0  0  0  0  0  0  0  0
   -6.0000    1.7321    0.0000 O   0  0  0  0  0  0  0  0  0  0  0  0
   -6.0000   -0.8660    0.0000 C   0  0  0  0  0  0  0  0  0  0  0  0
   -5.2500   -2.1651    0.0000 C   0  0  0  0  0  0  0  0  0  0  0  0
   -6.0000   -3.4641    0.0000 O   0  0  0  0  0  0  0  0  0  0  0  0
   -3.7500   -2.1651    0.0000 C   0  0  0  0  0  0  0  0  0  0  0  0
    3.7500    0.4330    0.0000 C   0  0  0  0  0  0  0  0  0  0  0  0
    3.0000    1.7321    0.0000 O   0  0  0  0  0  0  0  0  0  0  0  0
    5.2500    0.4330    0.0000 C   0  0  0  0  0  0  0  0  0  0  0  0
  1  2  1  0
  2  3  2  0
  2 27  1  0
  3  4  1  0
  4  5  1  0
  4  6  2  0
  6  7  1  0
  6 25  1  0
  7  8  1  0
  8  9  2  0
  8 15  1  0
  9 10  1  0
 10 11  1  0
 10 12  2  0
 12 13  1  0
 13 14  1  0
 13 15  2  0
 15 16  1  0
 16 17  1  0
 17 18  2  0
 17 24  1  0
 18 19  1  0
 19 20  1  0
 19 21  2  0
 21 22  1  0
 22 23  1  0
 22 24  2  0
 25 26  1  0
 25 27  2  0
M  END
>  <s_m_entry_id>  (505) 
1206

>  <s_m_entry_name>  (505) 
3C-like_protease_GHDDI_ligprep.825

>  <s_m_Source_Path>  (505) 
/home/jgilaber/drug_learning/drug_learning/datasets/SAR1/GHDDI

>  <s_m_Source_File>  (505) 
3C-like_protease_GHDDI_ligprep.sdf

>  <i_m_Source_File_Index>  (505) 
825

>  <s_m_subgroup_title>  (505) 
3C-like_protease_GHDDI_ligprep

>  <s_m_subgroupid>  (505) 
3C-like_protease_GHDDI_ligprep

>  <b_m_subgroup_collapsed>  (505) 
0

$$$$
14059
     RDKit          2D

 39 41  0  0  1  0  0  0  0  0999 V2000
    9.7910   -2.7827    0.0000 C   0  0  0  0  0  0  0  0  0  0  0  0
    9.6528   -1.2891    0.0000 O   0  0  0  0  0  0  0  0  0  0  0  0
    8.2902   -0.6620    0.0000 C   0  0  0  0  0  0  0  0  0  0  0  0
    7.0658   -1.5285    0.0000 C   0  0  0  0  0  0  0  0  0  0  0  0
    5.7032   -0.9014    0.0000 C   0  0  0  0  0  0  0  0  0  0  0  0
    4.4788   -1.7679    0.0000 C   0  0  0  0  0  0  0  0  0  0  0  0
    3.1162   -1.1408    0.0000 C   0  0  0  0  0  0  0  0  0  0  0  0
    1.8918   -2.0073    0.0000 C   0  0  0  0  0  0  0  0  0  0  0  0
    2.0300   -3.5009    0.0000 O   0  0  0  0  0  0  0  0  0  0  0  0
    0.5291   -1.3802    0.0000 O   0  0  0  0  0  0  0  0  0  0  0  0
   -0.6953   -2.2467    0.0000 C   0  0  0  0  0  0  0  0  0  0  0  0
   -2.0579   -1.6196    0.0000 C   0  0  0  0  0  0  0  0  0  0  0  0
   -2.1961   -0.1260    0.0000 N   0  0  0  0  0  0  0  0  0  0  0  0
   -3.5587    0.5011    0.0000 C   0  0  0  0  0  0  0  0  0  0  0  0
   -4.7831   -0.3654    0.0000 O   0  0  0  0  0  0  0  0  0  0  0  0
   -3.6970    1.9947    0.0000 C   0  0  0  0  0  0  0  0  0  0  0  0
   -5.0596    2.6218    0.0000 C   0  0  0  0  0  0  0  0  0  0  0  0
   -5.1978    4.1155    0.0000 C   0  0  0  0  0  0  0  0  0  0  0  0
   -3.9734    4.9820    0.0000 C   0  0  0  0  0  0  0  0  0  0  0  0
   -4.1116    6.4756    0.0000 C   0  0  0  0  0  0  0  0  0  0  0  0
   -5.4742    7.1027    0.0000 C   0  0  0  0  0  0  0  0  0  0  0  0
   -6.6986    6.2362    0.0000 C   0  0  0  0  0  0  0  0  0  0  0  0
   -6.5604    4.7426    0.0000 C   0  0  0  0  0  0  0  0  0  0  0  0
   -3.2823   -2.4861    0.0000 C   0  0  0  0  0  0  0  0  0  0  0  0
   -3.1441   -3.9797    0.0000 O   0  0  0  0  0  0  0  0  0  0  0  0
   -4.6449   -1.8590    0.0000 N   0  0  0  0  0  0  0  0  0  0  0  0
   -5.8693   -2.7255    0.0000 C   0  0  0  0  0  0  0  0  0  0  0  0
   -7.2319   -2.0984    0.0000 C   0  0  0  0  0  0  0  0  0  0  0  0
   -8.4563   -2.9649    0.0000 C   0  0  0  0  0  0  0  0  0  0  0  0
   -8.3181   -4.4585    0.0000 C   0  0  0  0  0  0  0  0  0  0  0  0
   -6.9555   -5.0857    0.0000 C   0  0  0  0  0  0  0  0  0  0  0  0
   -5.7311   -4.2191    0.0000 C   0  0  0  0  0  0  0  0  0  0  0  0
    5.5650    0.5922    0.0000 C   0  0  0  0  0  0  0  0  0  0  0  0
    6.7894    1.4588    0.0000 C   0  0  0  0  0  0  0  0  0  0  0  0
    6.6511    2.9524    0.0000 O   0  0  0  0  0  0  0  0  0  0  0  0
    7.8755    3.8189    0.0000 C   0  0  0  0  0  0  0  0  0  0  0  0
    8.1520    0.8317    0.0000 C   0  0  0  0  0  0  0  0  0  0  0  0
    9.3764    1.6982    0.0000 O   0  0  0  0  0  0  0  0  0  0  0  0
   10.7390    1.0711    0.0000 C   0  0  0  0  0  0  0  0  0  0  0  0
  1  2  1  0
  2  3  1  0
  3  4  2  0
  3 37  1  0
  4  5  1  0
  5  6  1  0
  5 33  2  0
  6  7  2  0
  7  8  1  0
  8  9  2  0
  8 10  1  0
 10 11  1  0
 11 12  1  0
 12 13  1  0
 12 24  1  0
 13 14  1  0
 14 15  2  0
 14 16  1  0
 16 17  2  0
 17 18  1  0
 18 19  2  0
 18 23  1  0
 19 20  1  0
 20 21  2  0
 21 22  1  0
 22 23  2  0
 24 25  2  0
 24 26  1  0
 26 27  1  0
 27 28  1  0
 27 32  1  0
 28 29  1  0
 29 30  1  0
 30 31  1  0
 31 32  1  0
 33 34  1  0
 34 35  1  0
 34 37  2  0
 35 36  1  0
 37 38  1  0
 38 39  1  0
M  END
>  <s_m_entry_id>  (506) 
1207

>  <s_m_entry_name>  (506) 
3C-like_protease_GHDDI_ligprep.826

>  <s_m_Source_Path>  (506) 
/home/jgilaber/drug_learning/drug_learning/datasets/SAR1/GHDDI

>  <s_m_Source_File>  (506) 
3C-like_protease_GHDDI_ligprep.sdf

>  <i_m_Source_File_Index>  (506) 
826

>  <s_m_subgroup_title>  (506) 
3C-like_protease_GHDDI_ligprep

>  <s_m_subgroupid>  (506) 
3C-like_protease_GHDDI_ligprep

>  <b_m_subgroup_collapsed>  (506) 
0

$$$$
14060
     RDKit          2D

 39 41  0  0  1  0  0  0  0  0999 V2000
    9.7910   -2.7827    0.0000 C   0  0  0  0  0  0  0  0  0  0  0  0
    9.6528   -1.2891    0.0000 O   0  0  0  0  0  0  0  0  0  0  0  0
    8.2902   -0.6620    0.0000 C   0  0  0  0  0  0  0  0  0  0  0  0
    7.0658   -1.5285    0.0000 C   0  0  0  0  0  0  0  0  0  0  0  0
    5.7032   -0.9014    0.0000 C   0  0  0  0  0  0  0  0  0  0  0  0
    4.4788   -1.7679    0.0000 C   0  0  0  0  0  0  0  0  0  0  0  0
    3.1162   -1.1408    0.0000 C   0  0  0  0  0  0  0  0  0  0  0  0
    1.8918   -2.0073    0.0000 C   0  0  0  0  0  0  0  0  0  0  0  0
    2.0300   -3.5009    0.0000 O   0  0  0  0  0  0  0  0  0  0  0  0
    0.5291   -1.3802    0.0000 O   0  0  0  0  0  0  0  0  0  0  0  0
   -0.6953   -2.2467    0.0000 C   0  0  0  0  0  0  0  0  0  0  0  0
   -2.0579   -1.6196    0.0000 C   0  0  0  0  0  0  0  0  0  0  0  0
   -2.1961   -0.1260    0.0000 N   0  0  0  0  0  0  0  0  0  0  0  0
   -3.5587    0.5011    0.0000 C   0  0  0  0  0  0  0  0  0  0  0  0
   -4.7831   -0.3654    0.0000 O   0  0  0  0  0  0  0  0  0  0  0  0
   -3.6970    1.9947    0.0000 C   0  0  0  0  0  0  0  0  0  0  0  0
   -5.0596    2.6218    0.0000 C   0  0  0  0  0  0  0  0  0  0  0  0
   -5.1978    4.1155    0.0000 C   0  0  0  0  0  0  0  0  0  0  0  0
   -3.9734    4.9820    0.0000 C   0  0  0  0  0  0  0  0  0  0  0  0
   -4.1116    6.4756    0.0000 C   0  0  0  0  0  0  0  0  0  0  0  0
   -5.4742    7.1027    0.0000 C   0  0  0  0  0  0  0  0  0  0  0  0
   -6.6986    6.2362    0.0000 C   0  0  0  0  0  0  0  0  0  0  0  0
   -6.5604    4.7426    0.0000 C   0  0  0  0  0  0  0  0  0  0  0  0
   -3.2823   -2.4861    0.0000 C   0  0  0  0  0  0  0  0  0  0  0  0
   -3.1441   -3.9797    0.0000 O   0  0  0  0  0  0  0  0  0  0  0  0
   -4.6449   -1.8590    0.0000 N   0  0  0  0  0  0  0  0  0  0  0  0
   -5.8693   -2.7255    0.0000 C   0  0  0  0  0  0  0  0  0  0  0  0
   -7.2319   -2.0984    0.0000 C   0  0  0  0  0  0  0  0  0  0  0  0
   -8.4563   -2.9649    0.0000 C   0  0  0  0  0  0  0  0  0  0  0  0
   -8.3181   -4.4585    0.0000 C   0  0  0  0  0  0  0  0  0  0  0  0
   -6.9555   -5.0857    0.0000 C   0  0  0  0  0  0  0  0  0  0  0  0
   -5.7311   -4.2191    0.0000 C   0  0  0  0  0  0  0  0  0  0  0  0
    5.5650    0.5922    0.0000 C   0  0  0  0  0  0  0  0  0  0  0  0
    6.7894    1.4588    0.0000 C   0  0  0  0  0  0  0  0  0  0  0  0
    6.6511    2.9524    0.0000 O   0  0  0  0  0  0  0  0  0  0  0  0
    7.8755    3.8189    0.0000 C   0  0  0  0  0  0  0  0  0  0  0  0
    8.1520    0.8317    0.0000 C   0  0  0  0  0  0  0  0  0  0  0  0
    9.3764    1.6982    0.0000 O   0  0  0  0  0  0  0  0  0  0  0  0
   10.7390    1.0711    0.0000 C   0  0  0  0  0  0  0  0  0  0  0  0
  1  2  1  0
  2  3  1  0
  3  4  2  0
  3 37  1  0
  4  5  1  0
  5  6  1  0
  5 33  2  0
  6  7  2  0
  7  8  1  0
  8  9  2  0
  8 10  1  0
 10 11  1  0
 11 12  1  0
 12 13  1  0
 12 24  1  0
 13 14  1  0
 14 15  2  0
 14 16  1  0
 16 17  2  0
 17 18  1  0
 18 19  2  0
 18 23  1  0
 19 20  1  0
 20 21  2  0
 21 22  1  0
 22 23  2  0
 24 25  2  0
 24 26  1  0
 26 27  1  0
 27 28  1  0
 27 32  1  0
 28 29  1  0
 29 30  1  0
 30 31  1  0
 31 32  1  0
 33 34  1  0
 34 35  1  0
 34 37  2  0
 35 36  1  0
 37 38  1  0
 38 39  1  0
M  END
>  <s_m_entry_id>  (507) 
1209

>  <s_m_entry_name>  (507) 
3C-like_protease_GHDDI_ligprep.828

>  <s_m_Source_Path>  (507) 
/home/jgilaber/drug_learning/drug_learning/datasets/SAR1/GHDDI

>  <s_m_Source_File>  (507) 
3C-like_protease_GHDDI_ligprep.sdf

>  <i_m_Source_File_Index>  (507) 
828

>  <s_m_subgroup_title>  (507) 
3C-like_protease_GHDDI_ligprep

>  <s_m_subgroupid>  (507) 
3C-like_protease_GHDDI_ligprep

>  <b_m_subgroup_collapsed>  (507) 
0

$$$$
14061
     RDKit          2D

 31 33  0  0  1  0  0  0  0  0999 V2000
   -2.2016   -0.6823    0.0000 O   0  0  0  0  0  0  0  0  0  0  0  0
   -1.1713    0.4079    0.0000 C   0  0  0  0  0  0  0  0  0  0  0  0
    0.2880    0.0607    0.0000 N   0  0  0  0  0  0  0  0  0  0  0  0
    0.7170   -1.3766    0.0000 C   0  0  0  0  0  0  0  0  0  0  0  0
    2.1762   -1.7238    0.0000 C   0  0  0  0  0  0  0  0  0  0  0  0
    3.2065   -0.6336    0.0000 O   0  0  0  0  0  0  0  0  0  0  0  0
    4.6658   -0.9808    0.0000 C   0  0  0  0  0  0  0  0  0  0  0  0
    5.0948   -2.4182    0.0000 O   0  0  0  0  0  0  0  0  0  0  0  0
    5.6961    0.1094    0.0000 C   0  0  0  0  0  0  0  0  0  0  0  0
    7.1554   -0.2378    0.0000 C   0  0  0  0  0  0  0  0  0  0  0  0
    8.1857    0.8524    0.0000 C   0  0  0  0  0  0  0  0  0  0  0  0
    7.7567    2.2897    0.0000 N   0  0  0  0  0  0  0  0  0  0  0  0
    6.2974    2.6369    0.0000 C   0  0  0  0  0  0  0  0  0  0  0  0
    5.2671    1.5467    0.0000 C   0  0  0  0  0  0  0  0  0  0  0  0
   -0.3133   -2.4668    0.0000 C   0  0  0  0  0  0  0  0  0  0  0  0
    0.1156   -3.9042    0.0000 O   0  0  0  0  0  0  0  0  0  0  0  0
   -1.7726   -2.1197    0.0000 N   0  0  0  0  0  0  0  0  0  0  0  0
   -2.8029   -3.2098    0.0000 C   0  0  0  0  0  0  0  0  0  0  0  0
   -4.2622   -2.8627    0.0000 C   0  0  0  0  0  0  0  0  0  0  0  0
   -5.2925   -3.9528    0.0000 C   0  0  0  0  0  0  0  0  0  0  0  0
   -4.8635   -5.3902    0.0000 C   0  0  0  0  0  0  0  0  0  0  0  0
   -3.4042   -5.7374    0.0000 C   0  0  0  0  0  0  0  0  0  0  0  0
   -2.3739   -4.6472    0.0000 C   0  0  0  0  0  0  0  0  0  0  0  0
   -1.6002    1.8452    0.0000 C   0  0  0  0  0  0  0  0  0  0  0  0
   -3.0595    2.1924    0.0000 C   0  0  0  0  0  0  0  0  0  0  0  0
   -3.4885    3.6298    0.0000 C   0  0  0  0  0  0  0  0  0  0  0  0
   -2.4582    4.7199    0.0000 C   0  0  0  0  0  0  0  0  0  0  0  0
   -2.8872    6.1573    0.0000 C   0  0  0  0  0  0  0  0  0  0  0  0
   -4.3464    6.5045    0.0000 C   0  0  0  0  0  0  0  0  0  0  0  0
   -5.3767    5.4143    0.0000 C   0  0  0  0  0  0  0  0  0  0  0  0
   -4.9478    3.9769    0.0000 C   0  0  0  0  0  0  0  0  0  0  0  0
  1  2  2  0
  2  3  1  0
  2 24  1  0
  3  4  1  0
  4  5  1  0
  4 15  1  0
  5  6  1  0
  6  7  1  0
  7  8  2  0
  7  9  1  0
  9 10  2  0
  9 14  1  0
 10 11  1  0
 11 12  2  0
 12 13  1  0
 13 14  2  0
 15 16  2  0
 15 17  1  0
 17 18  1  0
 18 19  1  0
 18 23  1  0
 19 20  1  0
 20 21  1  0
 21 22  1  0
 22 23  1  0
 24 25  2  0
 25 26  1  0
 26 27  2  0
 26 31  1  0
 27 28  1  0
 28 29  2  0
 29 30  1  0
 30 31  2  0
M  END
>  <s_m_entry_id>  (508) 
1210

>  <s_m_entry_name>  (508) 
3C-like_protease_GHDDI_ligprep.829

>  <s_m_Source_Path>  (508) 
/home/jgilaber/drug_learning/drug_learning/datasets/SAR1/GHDDI

>  <s_m_Source_File>  (508) 
3C-like_protease_GHDDI_ligprep.sdf

>  <i_m_Source_File_Index>  (508) 
829

>  <s_m_subgroup_title>  (508) 
3C-like_protease_GHDDI_ligprep

>  <s_m_subgroupid>  (508) 
3C-like_protease_GHDDI_ligprep

>  <b_m_subgroup_collapsed>  (508) 
0

$$$$
14062
     RDKit          2D

 30 33  0  0  1  0  0  0  0  0999 V2000
    5.9545   -4.9766    0.0000 Br  0  0  0  0  0  0  0  0  0  0  0  0
    4.7733   -4.0521    0.0000 C   0  0  0  0  0  0  0  0  0  0  0  0
    3.3820   -4.6127    0.0000 C   0  0  0  0  0  0  0  0  0  0  0  0
    2.2008   -3.6882    0.0000 C   0  0  0  0  0  0  0  0  0  0  0  0
    2.4109   -2.2030    0.0000 C   0  0  0  0  0  0  0  0  0  0  0  0
    3.8022   -1.6423    0.0000 C   0  0  0  0  0  0  0  0  0  0  0  0
    4.9834   -2.5668    0.0000 C   0  0  0  0  0  0  0  0  0  0  0  0
    1.2297   -1.2785    0.0000 C   0  0  0  0  0  0  0  0  0  0  0  0
   -0.1616   -1.8392    0.0000 O   0  0  0  0  0  0  0  0  0  0  0  0
    1.4397    0.2067    0.0000 N   0  0  0  0  0  0  0  0  0  0  0  0
    2.8310    0.7674    0.0000 C   0  0  0  0  0  0  0  0  0  0  0  0
    3.0411    2.2527    0.0000 C   0  0  0  0  0  0  0  0  0  0  0  0
    4.4323    2.8133    0.0000 C   0  0  0  0  0  0  0  0  0  0  0  0
    4.6424    4.2986    0.0000 C   0  0  0  0  0  0  0  0  0  0  0  0
    3.4612    5.2231    0.0000 C   0  0  0  0  0  0  0  0  0  0  0  0
    2.0699    4.6624    0.0000 C   0  0  0  0  0  0  0  0  0  0  0  0
    1.8599    3.1772    0.0000 C   0  0  0  0  0  0  0  0  0  0  0  0
    0.4686    2.6165    0.0000 C   0  0  0  0  0  0  0  0  0  0  0  0
    0.2585    1.1313    0.0000 C   0  0  0  0  0  0  0  0  0  0  0  0
   -1.1327    0.5706    0.0000 C   0  0  0  0  0  0  0  0  0  0  0  0
   -2.3139    1.4951    0.0000 N   0  0  0  0  0  0  0  0  0  0  0  0
   -3.7052    0.9344    0.0000 C   0  0  0  0  0  0  0  0  0  0  0  0
   -3.9153   -0.5508    0.0000 C   0  0  0  0  0  0  0  0  0  0  0  0
   -5.3065   -1.1115    0.0000 C   0  0  0  0  0  0  0  0  0  0  0  0
   -5.6707   -2.5666    0.0000 C   0  0  0  0  0  0  0  0  0  0  0  0
   -7.1671   -2.6699    0.0000 N   0  0  0  0  0  0  0  0  0  0  0  0
   -7.7278   -1.2787    0.0000 C   0  0  0  0  0  0  0  0  0  0  0  0
   -6.5779   -0.3155    0.0000 N   0  0  0  0  0  0  0  0  0  0  0  0
   -4.8864    1.8589    0.0000 C   0  0  0  0  0  0  0  0  0  0  0  0
   -4.6763    3.3442    0.0000 O   0  0  0  0  0  0  0  0  0  0  0  0
  1  2  1  0
  2  3  2  0
  2  7  1  0
  3  4  1  0
  4  5  2  0
  5  6  1  0
  5  8  1  0
  6  7  2  0
  8  9  2  0
  8 10  1  0
 10 11  1  0
 10 19  1  0
 11 12  1  0
 12 13  1  0
 12 17  1  0
 13 14  1  0
 14 15  1  0
 15 16  1  0
 16 17  1  0
 17 18  1  0
 18 19  1  0
 19 20  1  0
 20 21  1  0
 21 22  1  0
 22 23  1  0
 22 29  2  0
 23 24  1  0
 24 25  2  0
 24 28  1  0
 25 26  1  0
 26 27  1  0
 27 28  2  0
 29 30  1  0
M  CHG  2  21   1  30  -1
M  END
>  <s_m_entry_id>  (509) 
1211

>  <s_m_entry_name>  (509) 
3C-like_protease_GHDDI_ligprep.830

>  <s_m_Source_Path>  (509) 
/home/jgilaber/drug_learning/drug_learning/datasets/SAR1/GHDDI

>  <s_m_Source_File>  (509) 
3C-like_protease_GHDDI_ligprep.sdf

>  <i_m_Source_File_Index>  (509) 
830

>  <s_m_subgroup_title>  (509) 
3C-like_protease_GHDDI_ligprep

>  <s_m_subgroupid>  (509) 
3C-like_protease_GHDDI_ligprep

>  <b_m_subgroup_collapsed>  (509) 
0

$$$$
14063
     RDKit          2D

 31 33  0  0  1  0  0  0  0  0999 V2000
   -2.2016   -0.6823    0.0000 O   0  0  0  0  0  0  0  0  0  0  0  0
   -1.1713    0.4079    0.0000 C   0  0  0  0  0  0  0  0  0  0  0  0
    0.2880    0.0607    0.0000 N   0  0  0  0  0  0  0  0  0  0  0  0
    0.7170   -1.3766    0.0000 C   0  0  0  0  0  0  0  0  0  0  0  0
    2.1762   -1.7238    0.0000 C   0  0  0  0  0  0  0  0  0  0  0  0
    3.2065   -0.6336    0.0000 O   0  0  0  0  0  0  0  0  0  0  0  0
    4.6658   -0.9808    0.0000 C   0  0  0  0  0  0  0  0  0  0  0  0
    5.0948   -2.4182    0.0000 O   0  0  0  0  0  0  0  0  0  0  0  0
    5.6961    0.1094    0.0000 C   0  0  0  0  0  0  0  0  0  0  0  0
    7.1554   -0.2378    0.0000 C   0  0  0  0  0  0  0  0  0  0  0  0
    8.1857    0.8524    0.0000 C   0  0  0  0  0  0  0  0  0  0  0  0
    7.7567    2.2897    0.0000 N   0  0  0  0  0  0  0  0  0  0  0  0
    6.2974    2.6369    0.0000 C   0  0  0  0  0  0  0  0  0  0  0  0
    5.2671    1.5467    0.0000 C   0  0  0  0  0  0  0  0  0  0  0  0
   -0.3133   -2.4668    0.0000 C   0  0  0  0  0  0  0  0  0  0  0  0
    0.1156   -3.9042    0.0000 O   0  0  0  0  0  0  0  0  0  0  0  0
   -1.7726   -2.1197    0.0000 N   0  0  0  0  0  0  0  0  0  0  0  0
   -2.8029   -3.2098    0.0000 C   0  0  0  0  0  0  0  0  0  0  0  0
   -4.2622   -2.8627    0.0000 C   0  0  0  0  0  0  0  0  0  0  0  0
   -5.2925   -3.9528    0.0000 C   0  0  0  0  0  0  0  0  0  0  0  0
   -4.8635   -5.3902    0.0000 C   0  0  0  0  0  0  0  0  0  0  0  0
   -3.4042   -5.7374    0.0000 C   0  0  0  0  0  0  0  0  0  0  0  0
   -2.3739   -4.6472    0.0000 C   0  0  0  0  0  0  0  0  0  0  0  0
   -1.6002    1.8452    0.0000 C   0  0  0  0  0  0  0  0  0  0  0  0
   -3.0595    2.1924    0.0000 C   0  0  0  0  0  0  0  0  0  0  0  0
   -3.4885    3.6298    0.0000 C   0  0  0  0  0  0  0  0  0  0  0  0
   -2.4582    4.7199    0.0000 C   0  0  0  0  0  0  0  0  0  0  0  0
   -2.8872    6.1573    0.0000 C   0  0  0  0  0  0  0  0  0  0  0  0
   -4.3464    6.5045    0.0000 C   0  0  0  0  0  0  0  0  0  0  0  0
   -5.3767    5.4143    0.0000 C   0  0  0  0  0  0  0  0  0  0  0  0
   -4.9478    3.9769    0.0000 C   0  0  0  0  0  0  0  0  0  0  0  0
  1  2  2  0
  2  3  1  0
  2 24  1  0
  3  4  1  0
  4  5  1  0
  4 15  1  0
  5  6  1  0
  6  7  1  0
  7  8  2  0
  7  9  1  0
  9 10  2  0
  9 14  1  0
 10 11  1  0
 11 12  2  0
 12 13  1  0
 13 14  2  0
 15 16  2  0
 15 17  1  0
 17 18  1  0
 18 19  1  0
 18 23  1  0
 19 20  1  0
 20 21  1  0
 21 22  1  0
 22 23  1  0
 24 25  2  0
 25 26  1  0
 26 27  2  0
 26 31  1  0
 27 28  1  0
 28 29  2  0
 29 30  1  0
 30 31  2  0
M  END
>  <s_m_entry_id>  (510) 
1213

>  <s_m_entry_name>  (510) 
3C-like_protease_GHDDI_ligprep.832

>  <s_m_Source_Path>  (510) 
/home/jgilaber/drug_learning/drug_learning/datasets/SAR1/GHDDI

>  <s_m_Source_File>  (510) 
3C-like_protease_GHDDI_ligprep.sdf

>  <i_m_Source_File_Index>  (510) 
832

>  <s_m_subgroup_title>  (510) 
3C-like_protease_GHDDI_ligprep

>  <s_m_subgroupid>  (510) 
3C-like_protease_GHDDI_ligprep

>  <b_m_subgroup_collapsed>  (510) 
0

$$$$
14064
     RDKit          2D

 44 50  0  0  1  0  0  0  0  0999 V2000
   -8.9055    5.0618    0.0000 O   0  0  0  0  0  0  0  0  0  0  0  0
   -8.6176    3.5897    0.0000 C   0  0  0  0  0  0  0  0  0  0  0  0
   -9.7485    2.6043    0.0000 C   0  0  0  0  0  0  0  0  0  0  0  0
   -9.4605    1.1322    0.0000 C   0  0  0  0  0  0  0  0  0  0  0  0
  -10.5914    0.1467    0.0000 O   0  0  0  0  0  0  0  0  0  0  0  0
   -8.0416    0.6455    0.0000 C   0  0  0  0  0  0  0  0  0  0  0  0
   -6.9108    1.6309    0.0000 C   0  0  0  0  0  0  0  0  0  0  0  0
   -5.4919    1.1443    0.0000 O   0  0  0  0  0  0  0  0  0  0  0  0
   -5.2039   -0.3278    0.0000 C   0  0  0  0  0  0  0  0  0  0  0  0
   -6.3348   -1.3133    0.0000 C   0  0  0  0  0  0  0  0  0  0  0  0
   -7.7537   -0.8266    0.0000 O   0  0  0  0  0  0  0  0  0  0  0  0
   -6.0469   -2.7854    0.0000 C   0  0  0  0  0  0  0  0  0  0  0  0
   -4.6280   -3.2720    0.0000 C   0  0  0  0  0  0  0  0  0  0  0  0
   -4.3400   -4.7441    0.0000 O   0  0  0  0  0  0  0  0  0  0  0  0
   -3.4971   -2.2866    0.0000 C   0  0  0  0  0  0  0  0  0  0  0  0
   -2.0783   -2.7733    0.0000 O   0  0  0  0  0  0  0  0  0  0  0  0
   -0.9474   -1.7878    0.0000 C   0  0  0  0  0  0  0  0  0  0  0  0
    0.4715   -2.2745    0.0000 C   0  0  0  0  0  0  0  0  0  0  0  0
    1.6024   -1.2891    0.0000 C   0  0  0  0  0  0  0  0  0  0  0  0
    1.3144    0.1830    0.0000 C   0  0  0  0  0  0  0  0  0  0  0  0
    2.6255    0.9118    0.0000 O   0  0  0  0  0  0  0  0  0  0  0  0
    3.7237   -0.1099    0.0000 C   0  0  0  0  0  0  0  0  0  0  0  0
    5.2179    0.0226    0.0000 C   0  0  0  0  0  0  0  0  0  0  0  0
    5.8502    1.3829    0.0000 O   0  0  0  0  0  0  0  0  0  0  0  0
    7.3443    1.5154    0.0000 C   0  0  0  0  0  0  0  0  0  0  0  0
    8.2061    0.2877    0.0000 C   0  0  0  0  0  0  0  0  0  0  0  0
    9.7003    0.4202    0.0000 C   0  0  0  0  0  0  0  0  0  0  0  0
   10.5621   -0.8075    0.0000 O   0  0  0  0  0  0  0  0  0  0  0  0
   10.3326    1.7804    0.0000 C   0  0  0  0  0  0  0  0  0  0  0  0
    9.4708    3.0081    0.0000 C   0  0  0  0  0  0  0  0  0  0  0  0
   10.1031    4.3683    0.0000 O   0  0  0  0  0  0  0  0  0  0  0  0
    7.9766    2.8756    0.0000 C   0  0  0  0  0  0  0  0  0  0  0  0
    6.0797   -1.2051    0.0000 C   0  0  0  0  0  0  0  0  0  0  0  0
    7.5738   -1.0726    0.0000 O   0  0  0  0  0  0  0  0  0  0  0  0
    5.4474   -2.5653    0.0000 C   0  0  0  0  0  0  0  0  0  0  0  0
    3.9532   -2.6978    0.0000 C   0  0  0  0  0  0  0  0  0  0  0  0
    3.3209   -4.0580    0.0000 O   0  0  0  0  0  0  0  0  0  0  0  0
    3.0914   -1.4701    0.0000 C   0  0  0  0  0  0  0  0  0  0  0  0
   -0.1044    0.6697    0.0000 C   0  0  0  0  0  0  0  0  0  0  0  0
   -0.3924    2.1418    0.0000 O   0  0  0  0  0  0  0  0  0  0  0  0
   -1.2353   -0.3157    0.0000 C   0  0  0  0  0  0  0  0  0  0  0  0
   -2.6542    0.1709    0.0000 O   0  0  0  0  0  0  0  0  0  0  0  0
   -3.7851   -0.8145    0.0000 C   0  0  0  0  0  0  0  0  0  0  0  0
   -7.1987    3.1030    0.0000 C   0  0  0  0  0  0  0  0  0  0  0  0
  1  2  1  0
  2  3  2  0
  2 44  1  0
  3  4  1  0
  4  5  1  0
  4  6  2  0
  6  7  1  0
  7  8  1  0
  7 44  2  0
  8  9  1  0
  9 10  2  0
  9 43  1  0
 10 11  1  0
 10 12  1  0
 12 13  2  0
 13 14  1  0
 13 15  1  0
 15 16  1  0
 15 43  2  0
 16 17  1  0
 17 18  2  0
 17 41  1  0
 18 19  1  0
 19 20  2  0
 19 38  1  0
 20 21  1  0
 20 39  1  0
 21 22  1  0
 22 23  1  0
 22 38  2  0
 23 24  1  0
 23 33  2  0
 24 25  1  0
 25 26  2  0
 25 32  1  0
 26 27  1  0
 27 28  1  0
 27 29  2  0
 29 30  1  0
 30 31  1  0
 30 32  2  0
 33 34  1  0
 33 35  1  0
 35 36  2  0
 36 37  1  0
 36 38  1  0
 39 40  1  0
 39 41  2  0
 41 42  1  0
 42 43  1  0
M  END
>  <s_m_entry_id>  (511) 
1215

>  <s_m_entry_name>  (511) 
3C-like_protease_GHDDI_ligprep.834

>  <s_m_Source_Path>  (511) 
/home/jgilaber/drug_learning/drug_learning/datasets/SAR1/GHDDI

>  <s_m_Source_File>  (511) 
3C-like_protease_GHDDI_ligprep.sdf

>  <i_m_Source_File_Index>  (511) 
834

>  <s_m_subgroup_title>  (511) 
3C-like_protease_GHDDI_ligprep

>  <s_m_subgroupid>  (511) 
3C-like_protease_GHDDI_ligprep

>  <b_m_subgroup_collapsed>  (511) 
0

$$$$
14066
     RDKit          2D

 36 39  0  0  1  0  0  0  0  0999 V2000
   -9.2613   -0.5313    0.0000 O   0  0  0  0  0  0  0  0  0  0  0  0
   -7.7992   -0.1961    0.0000 C   0  0  0  0  0  0  0  0  0  0  0  0
   -7.3585    1.2377    0.0000 C   0  0  0  0  0  0  0  0  0  0  0  0
   -5.8964    1.5729    0.0000 C   0  0  0  0  0  0  0  0  0  0  0  0
   -5.4556    3.0066    0.0000 O   0  0  0  0  0  0  0  0  0  0  0  0
   -4.8751    0.4743    0.0000 C   0  0  0  0  0  0  0  0  0  0  0  0
   -3.4130    0.8094    0.0000 O   0  0  0  0  0  0  0  0  0  0  0  0
   -2.3917   -0.2892    0.0000 C   0  0  0  0  0  0  0  0  0  0  0  0
   -2.8325   -1.7229    0.0000 C   0  0  0  0  0  0  0  0  0  0  0  0
   -1.8111   -2.8215    0.0000 C   0  0  0  0  0  0  0  0  0  0  0  0
   -2.2519   -4.2553    0.0000 O   0  0  0  0  0  0  0  0  0  0  0  0
   -0.3491   -2.4864    0.0000 C   0  0  0  0  0  0  0  0  0  0  0  0
    0.0917   -1.0526    0.0000 C   0  0  0  0  0  0  0  0  0  0  0  0
    1.5538   -0.7174    0.0000 O   0  0  0  0  0  0  0  0  0  0  0  0
   -0.9296    0.0460    0.0000 C   0  0  0  0  0  0  0  0  0  0  0  0
   -0.4889    1.4798    0.0000 O   0  0  0  0  0  0  0  0  0  0  0  0
    0.9732    1.8150    0.0000 C   0  0  0  0  0  0  0  0  0  0  0  0
    1.9945    0.7164    0.0000 C   0  0  0  0  0  0  0  0  0  0  0  0
    3.4566    1.0516    0.0000 C   0  0  0  0  0  0  0  0  0  0  0  0
    3.8974    2.4853    0.0000 C   0  0  0  0  0  0  0  0  0  0  0  0
    5.3594    2.8205    0.0000 O   0  0  0  0  0  0  0  0  0  0  0  0
    2.8760    3.5840    0.0000 C   0  0  0  0  0  0  0  0  0  0  0  0
    1.4140    3.2488    0.0000 C   0  0  0  0  0  0  0  0  0  0  0  0
    0.3927    4.3474    0.0000 O   0  0  0  0  0  0  0  0  0  0  0  0
    4.4779   -0.0470    0.0000 C   0  0  0  0  0  0  0  0  0  0  0  0
    4.0371   -1.4808    0.0000 C   0  0  0  0  0  0  0  0  0  0  0  0
    2.5751   -1.8160    0.0000 O   0  0  0  0  0  0  0  0  0  0  0  0
    5.0585   -2.5794    0.0000 C   0  0  0  0  0  0  0  0  0  0  0  0
    6.5205   -2.2442    0.0000 C   0  0  0  0  0  0  0  0  0  0  0  0
    7.5418   -3.3428    0.0000 O   0  0  0  0  0  0  0  0  0  0  0  0
    6.9613   -0.8105    0.0000 C   0  0  0  0  0  0  0  0  0  0  0  0
    5.9400    0.2881    0.0000 C   0  0  0  0  0  0  0  0  0  0  0  0
    6.3807    1.7219    0.0000 O   0  0  0  0  0  0  0  0  0  0  0  0
   -5.3158   -0.9595    0.0000 C   0  0  0  0  0  0  0  0  0  0  0  0
   -4.2945   -2.0581    0.0000 O   0  0  0  0  0  0  0  0  0  0  0  0
   -6.7779   -1.2947    0.0000 C   0  0  0  0  0  0  0  0  0  0  0  0
  1  2  1  0
  2  3  2  0
  2 36  1  0
  3  4  1  0
  4  5  1  0
  4  6  2  0
  6  7  1  0
  6 34  1  0
  7  8  1  0
  8  9  2  0
  8 15  1  0
  9 10  1  0
 10 11  1  0
 10 12  2  0
 12 13  1  0
 13 14  1  0
 13 15  2  0
 15 16  1  0
 16 17  1  0
 17 23  1  0
 17 18  2  0
 18 19  1  0
 19 25  1  0
 19 20  2  0
 20 21  1  0
 20 22  1  0
 22 23  2  0
 23 24  1  0
 25 26  2  0
 25 32  1  0
 26 27  1  0
 26 28  1  0
 28 29  2  0
 29 30  1  0
 29 31  1  0
 31 32  2  0
 32 33  1  0
 34 35  1  0
 34 36  2  0
M  END
>  <s_m_entry_id>  (512) 
1218

>  <s_m_entry_name>  (512) 
3C-like_protease_GHDDI_ligprep.837

>  <s_m_Source_Path>  (512) 
/home/jgilaber/drug_learning/drug_learning/datasets/SAR1/GHDDI

>  <s_m_Source_File>  (512) 
3C-like_protease_GHDDI_ligprep.sdf

>  <i_m_Source_File_Index>  (512) 
837

>  <s_m_subgroup_title>  (512) 
3C-like_protease_GHDDI_ligprep

>  <s_m_subgroupid>  (512) 
3C-like_protease_GHDDI_ligprep

>  <b_m_subgroup_collapsed>  (512) 
0

$$$$
14067
     RDKit          2D

 32 34  0  0  1  0  0  0  0  0999 V2000
   -1.7594   -0.9177    0.0000 O   0  0  0  0  0  0  0  0  0  0  0  0
   -0.7297    0.1731    0.0000 C   0  0  0  0  0  0  0  0  0  0  0  0
    0.7297   -0.1731    0.0000 N   0  0  0  0  0  0  0  0  0  0  0  0
    1.1596   -1.6102    0.0000 C   0  0  0  0  0  0  0  0  0  0  0  0
    2.6191   -1.9565    0.0000 C   0  0  0  0  0  0  0  0  0  0  0  0
    3.6487   -0.8657    0.0000 O   0  0  0  0  0  0  0  0  0  0  0  0
    5.1082   -1.2120    0.0000 C   0  0  0  0  0  0  0  0  0  0  0  0
    5.5380   -2.6491    0.0000 O   0  0  0  0  0  0  0  0  0  0  0  0
    6.1378   -0.1212    0.0000 C   0  0  0  0  0  0  0  0  0  0  0  0
    7.5973   -0.4675    0.0000 C   0  0  0  0  0  0  0  0  0  0  0  0
    8.6269    0.6233    0.0000 C   0  0  0  0  0  0  0  0  0  0  0  0
    8.1971    2.0604    0.0000 C   0  0  0  0  0  0  0  0  0  0  0  0
    6.7376    2.4067    0.0000 C   0  0  0  0  0  0  0  0  0  0  0  0
    5.7080    1.3159    0.0000 C   0  0  0  0  0  0  0  0  0  0  0  0
    0.1299   -2.7010    0.0000 C   0  0  0  0  0  0  0  0  0  0  0  0
    0.5598   -4.1381    0.0000 O   0  0  0  0  0  0  0  0  0  0  0  0
   -1.3295   -2.3547    0.0000 N   0  0  0  0  0  0  0  0  0  0  0  0
   -2.3592   -3.4455    0.0000 C   0  0  0  0  0  0  0  0  0  0  0  0
   -3.8187   -3.0993    0.0000 C   0  0  0  0  0  0  0  0  0  0  0  0
   -4.2485   -1.6622    0.0000 C   0  0  0  0  0  0  0  0  0  0  0  0
   -5.7080   -1.3159    0.0000 C   0  0  0  0  0  0  0  0  0  0  0  0
   -6.7376   -2.4067    0.0000 C   0  0  0  0  0  0  0  0  0  0  0  0
   -6.3078   -3.8438    0.0000 C   0  0  0  0  0  0  0  0  0  0  0  0
   -4.8483   -4.1901    0.0000 C   0  0  0  0  0  0  0  0  0  0  0  0
   -1.1596    1.6102    0.0000 C   0  0  0  0  0  0  0  0  0  0  0  0
   -2.6191    1.9565    0.0000 C   0  0  0  0  0  0  0  0  0  0  0  0
   -3.0489    3.3936    0.0000 C   0  0  0  0  0  0  0  0  0  0  0  0
   -2.0193    4.4844    0.0000 C   0  0  0  0  0  0  0  0  0  0  0  0
   -2.4491    5.9215    0.0000 C   0  0  0  0  0  0  0  0  0  0  0  0
   -3.9086    6.2678    0.0000 C   0  0  0  0  0  0  0  0  0  0  0  0
   -4.9382    5.1770    0.0000 C   0  0  0  0  0  0  0  0  0  0  0  0
   -4.5084    3.7399    0.0000 C   0  0  0  0  0  0  0  0  0  0  0  0
  1  2  2  0
  2  3  1  0
  2 25  1  0
  3  4  1  0
  4  5  1  0
  4 15  1  0
  5  6  1  0
  6  7  1  0
  7  8  2  0
  7  9  1  0
  9 10  2  0
  9 14  1  0
 10 11  1  0
 11 12  2  0
 12 13  1  0
 13 14  2  0
 15 16  2  0
 15 17  1  0
 17 18  1  0
 18 19  1  0
 19 20  1  0
 19 24  1  0
 20 21  1  0
 21 22  1  0
 22 23  1  0
 23 24  1  0
 25 26  2  0
 26 27  1  0
 27 28  2  0
 27 32  1  0
 28 29  1  0
 29 30  2  0
 30 31  1  0
 31 32  2  0
M  END
>  <s_m_entry_id>  (513) 
1219

>  <s_m_entry_name>  (513) 
3C-like_protease_GHDDI_ligprep.838

>  <s_m_Source_Path>  (513) 
/home/jgilaber/drug_learning/drug_learning/datasets/SAR1/GHDDI

>  <s_m_Source_File>  (513) 
3C-like_protease_GHDDI_ligprep.sdf

>  <i_m_Source_File_Index>  (513) 
838

>  <s_m_subgroup_title>  (513) 
3C-like_protease_GHDDI_ligprep

>  <s_m_subgroupid>  (513) 
3C-like_protease_GHDDI_ligprep

>  <b_m_subgroup_collapsed>  (513) 
0

$$$$
14068
     RDKit          2D

 31 33  0  0  1  0  0  0  0  0999 V2000
   -2.2016   -0.6823    0.0000 O   0  0  0  0  0  0  0  0  0  0  0  0
   -1.1713    0.4079    0.0000 C   0  0  0  0  0  0  0  0  0  0  0  0
    0.2880    0.0607    0.0000 N   0  0  0  0  0  0  0  0  0  0  0  0
    0.7170   -1.3766    0.0000 C   0  0  0  0  0  0  0  0  0  0  0  0
    2.1762   -1.7238    0.0000 C   0  0  0  0  0  0  0  0  0  0  0  0
    3.2065   -0.6336    0.0000 O   0  0  0  0  0  0  0  0  0  0  0  0
    4.6658   -0.9808    0.0000 C   0  0  0  0  0  0  0  0  0  0  0  0
    5.0948   -2.4182    0.0000 O   0  0  0  0  0  0  0  0  0  0  0  0
    5.6961    0.1094    0.0000 C   0  0  0  0  0  0  0  0  0  0  0  0
    7.1554   -0.2378    0.0000 C   0  0  0  0  0  0  0  0  0  0  0  0
    8.1857    0.8524    0.0000 C   0  0  0  0  0  0  0  0  0  0  0  0
    7.7567    2.2897    0.0000 C   0  0  0  0  0  0  0  0  0  0  0  0
    6.2974    2.6369    0.0000 N   0  0  0  0  0  0  0  0  0  0  0  0
    5.2671    1.5467    0.0000 C   0  0  0  0  0  0  0  0  0  0  0  0
   -0.3133   -2.4668    0.0000 C   0  0  0  0  0  0  0  0  0  0  0  0
    0.1156   -3.9042    0.0000 O   0  0  0  0  0  0  0  0  0  0  0  0
   -1.7726   -2.1197    0.0000 N   0  0  0  0  0  0  0  0  0  0  0  0
   -2.8029   -3.2098    0.0000 C   0  0  0  0  0  0  0  0  0  0  0  0
   -4.2622   -2.8627    0.0000 C   0  0  0  0  0  0  0  0  0  0  0  0
   -5.2925   -3.9528    0.0000 C   0  0  0  0  0  0  0  0  0  0  0  0
   -4.8635   -5.3902    0.0000 C   0  0  0  0  0  0  0  0  0  0  0  0
   -3.4042   -5.7374    0.0000 C   0  0  0  0  0  0  0  0  0  0  0  0
   -2.3739   -4.6472    0.0000 C   0  0  0  0  0  0  0  0  0  0  0  0
   -1.6002    1.8452    0.0000 C   0  0  0  0  0  0  0  0  0  0  0  0
   -3.0595    2.1924    0.0000 C   0  0  0  0  0  0  0  0  0  0  0  0
   -3.4885    3.6298    0.0000 C   0  0  0  0  0  0  0  0  0  0  0  0
   -2.4582    4.7199    0.0000 C   0  0  0  0  0  0  0  0  0  0  0  0
   -2.8872    6.1573    0.0000 C   0  0  0  0  0  0  0  0  0  0  0  0
   -4.3464    6.5045    0.0000 C   0  0  0  0  0  0  0  0  0  0  0  0
   -5.3767    5.4143    0.0000 C   0  0  0  0  0  0  0  0  0  0  0  0
   -4.9478    3.9769    0.0000 C   0  0  0  0  0  0  0  0  0  0  0  0
  1  2  2  0
  2  3  1  0
  2 24  1  0
  3  4  1  0
  4  5  1  0
  4 15  1  0
  5  6  1  0
  6  7  1  0
  7  8  2  0
  7  9  1  0
  9 10  2  0
  9 14  1  0
 10 11  1  0
 11 12  2  0
 12 13  1  0
 13 14  2  0
 15 16  2  0
 15 17  1  0
 17 18  1  0
 18 19  1  0
 18 23  1  0
 19 20  1  0
 20 21  1  0
 21 22  1  0
 22 23  1  0
 24 25  2  0
 25 26  1  0
 26 27  2  0
 26 31  1  0
 27 28  1  0
 28 29  2  0
 29 30  1  0
 30 31  2  0
M  END
>  <s_m_entry_id>  (514) 
1220

>  <s_m_entry_name>  (514) 
3C-like_protease_GHDDI_ligprep.839

>  <s_m_Source_Path>  (514) 
/home/jgilaber/drug_learning/drug_learning/datasets/SAR1/GHDDI

>  <s_m_Source_File>  (514) 
3C-like_protease_GHDDI_ligprep.sdf

>  <i_m_Source_File_Index>  (514) 
839

>  <s_m_subgroup_title>  (514) 
3C-like_protease_GHDDI_ligprep

>  <s_m_subgroupid>  (514) 
3C-like_protease_GHDDI_ligprep

>  <b_m_subgroup_collapsed>  (514) 
0

$$$$
14069
     RDKit          2D

 31 33  0  0  1  0  0  0  0  0999 V2000
   -2.2016   -0.6823    0.0000 O   0  0  0  0  0  0  0  0  0  0  0  0
   -1.1713    0.4079    0.0000 C   0  0  0  0  0  0  0  0  0  0  0  0
    0.2880    0.0607    0.0000 N   0  0  0  0  0  0  0  0  0  0  0  0
    0.7170   -1.3766    0.0000 C   0  0  0  0  0  0  0  0  0  0  0  0
    2.1762   -1.7238    0.0000 C   0  0  0  0  0  0  0  0  0  0  0  0
    3.2065   -0.6336    0.0000 O   0  0  0  0  0  0  0  0  0  0  0  0
    4.6658   -0.9808    0.0000 C   0  0  0  0  0  0  0  0  0  0  0  0
    5.0948   -2.4182    0.0000 O   0  0  0  0  0  0  0  0  0  0  0  0
    5.6961    0.1094    0.0000 C   0  0  0  0  0  0  0  0  0  0  0  0
    7.1554   -0.2378    0.0000 C   0  0  0  0  0  0  0  0  0  0  0  0
    8.1857    0.8524    0.0000 C   0  0  0  0  0  0  0  0  0  0  0  0
    7.7567    2.2897    0.0000 C   0  0  0  0  0  0  0  0  0  0  0  0
    6.2974    2.6369    0.0000 N   0  0  0  0  0  0  0  0  0  0  0  0
    5.2671    1.5467    0.0000 C   0  0  0  0  0  0  0  0  0  0  0  0
   -0.3133   -2.4668    0.0000 C   0  0  0  0  0  0  0  0  0  0  0  0
    0.1156   -3.9042    0.0000 O   0  0  0  0  0  0  0  0  0  0  0  0
   -1.7726   -2.1197    0.0000 N   0  0  0  0  0  0  0  0  0  0  0  0
   -2.8029   -3.2098    0.0000 C   0  0  0  0  0  0  0  0  0  0  0  0
   -4.2622   -2.8627    0.0000 C   0  0  0  0  0  0  0  0  0  0  0  0
   -5.2925   -3.9528    0.0000 C   0  0  0  0  0  0  0  0  0  0  0  0
   -4.8635   -5.3902    0.0000 C   0  0  0  0  0  0  0  0  0  0  0  0
   -3.4042   -5.7374    0.0000 C   0  0  0  0  0  0  0  0  0  0  0  0
   -2.3739   -4.6472    0.0000 C   0  0  0  0  0  0  0  0  0  0  0  0
   -1.6002    1.8452    0.0000 C   0  0  0  0  0  0  0  0  0  0  0  0
   -3.0595    2.1924    0.0000 C   0  0  0  0  0  0  0  0  0  0  0  0
   -3.4885    3.6298    0.0000 C   0  0  0  0  0  0  0  0  0  0  0  0
   -2.4582    4.7199    0.0000 C   0  0  0  0  0  0  0  0  0  0  0  0
   -2.8872    6.1573    0.0000 C   0  0  0  0  0  0  0  0  0  0  0  0
   -4.3464    6.5045    0.0000 C   0  0  0  0  0  0  0  0  0  0  0  0
   -5.3767    5.4143    0.0000 C   0  0  0  0  0  0  0  0  0  0  0  0
   -4.9478    3.9769    0.0000 C   0  0  0  0  0  0  0  0  0  0  0  0
  1  2  2  0
  2  3  1  0
  2 24  1  0
  3  4  1  0
  4  5  1  0
  4 15  1  0
  5  6  1  0
  6  7  1  0
  7  8  2  0
  7  9  1  0
  9 10  2  0
  9 14  1  0
 10 11  1  0
 11 12  2  0
 12 13  1  0
 13 14  2  0
 15 16  2  0
 15 17  1  0
 17 18  1  0
 18 19  1  0
 18 23  1  0
 19 20  1  0
 20 21  1  0
 21 22  1  0
 22 23  1  0
 24 25  2  0
 25 26  1  0
 26 27  2  0
 26 31  1  0
 27 28  1  0
 28 29  2  0
 29 30  1  0
 30 31  2  0
M  END
>  <s_m_entry_id>  (515) 
1221

>  <s_m_entry_name>  (515) 
3C-like_protease_GHDDI_ligprep.840

>  <s_m_Source_Path>  (515) 
/home/jgilaber/drug_learning/drug_learning/datasets/SAR1/GHDDI

>  <s_m_Source_File>  (515) 
3C-like_protease_GHDDI_ligprep.sdf

>  <i_m_Source_File_Index>  (515) 
840

>  <s_m_subgroup_title>  (515) 
3C-like_protease_GHDDI_ligprep

>  <s_m_subgroupid>  (515) 
3C-like_protease_GHDDI_ligprep

>  <b_m_subgroup_collapsed>  (515) 
0

$$$$
14073
     RDKit          2D

 24 26  0  0  1  0  0  0  0  0999 V2000
   -6.1935   -2.8252    0.0000 C   0  0  0  0  0  0  0  0  0  0  0  0
   -5.4137   -1.5439    0.0000 C   0  0  0  0  0  0  0  0  0  0  0  0
   -6.8109   -0.9984    0.0000 C   0  0  0  0  0  0  0  0  0  0  0  0
   -5.1190   -0.0731    0.0000 O   0  0  0  0  0  0  0  0  0  0  0  0
   -3.6980    0.4071    0.0000 C   0  0  0  0  0  0  0  0  0  0  0  0
   -3.4034    1.8779    0.0000 C   0  0  0  0  0  0  0  0  0  0  0  0
   -1.9823    2.3582    0.0000 C   0  0  0  0  0  0  0  0  0  0  0  0
   -1.6877    3.8289    0.0000 O   0  0  0  0  0  0  0  0  0  0  0  0
   -0.8559    1.3676    0.0000 C   0  0  0  0  0  0  0  0  0  0  0  0
   -1.1505   -0.1032    0.0000 C   0  0  0  0  0  0  0  0  0  0  0  0
   -2.5716   -0.5834    0.0000 C   0  0  0  0  0  0  0  0  0  0  0  0
   -2.8662   -2.0542    0.0000 C   0  0  0  0  0  0  0  0  0  0  0  0
   -4.2872   -2.5344    0.0000 C   0  0  0  0  0  0  0  0  0  0  0  0
    0.5651    1.8479    0.0000 C   0  0  0  0  0  0  0  0  0  0  0  0
    0.8597    3.3187    0.0000 O   0  0  0  0  0  0  0  0  0  0  0  0
    1.6916    0.8573    0.0000 C   0  0  0  0  0  0  0  0  0  0  0  0
    3.1126    1.3376    0.0000 C   0  0  0  0  0  0  0  0  0  0  0  0
    4.2390    0.3471    0.0000 C   0  0  0  0  0  0  0  0  0  0  0  0
    3.9444   -1.1237    0.0000 C   0  0  0  0  0  0  0  0  0  0  0  0
    5.0708   -2.1143    0.0000 C   0  0  0  0  0  0  0  0  0  0  0  0
    6.4919   -1.6340    0.0000 C   0  0  0  0  0  0  0  0  0  0  0  0
    7.6183   -2.6245    0.0000 O   0  0  0  0  0  0  0  0  0  0  0  0
    6.7865   -0.1632    0.0000 C   0  0  0  0  0  0  0  0  0  0  0  0
    5.6601    0.8273    0.0000 C   0  0  0  0  0  0  0  0  0  0  0  0
  1  2  1  0
  2  3  1  0
  2  4  1  0
  2 13  1  0
  4  5  1  0
  5  6  1  0
  5 11  2  0
  6  7  2  0
  7  8  1  0
  7  9  1  0
  9 10  2  0
  9 14  1  0
 10 11  1  0
 11 12  1  0
 12 13  2  0
 14 15  2  0
 14 16  1  0
 16 17  2  0
 17 18  1  0
 18 19  2  0
 18 24  1  0
 19 20  1  0
 20 21  2  0
 21 22  1  0
 21 23  1  0
 23 24  2  0
M  END
>  <s_m_entry_id>  (516) 
1226

>  <s_m_entry_name>  (516) 
3C-like_protease_GHDDI_ligprep.845

>  <s_m_Source_Path>  (516) 
/home/jgilaber/drug_learning/drug_learning/datasets/SAR1/GHDDI

>  <s_m_Source_File>  (516) 
3C-like_protease_GHDDI_ligprep.sdf

>  <i_m_Source_File_Index>  (516) 
845

>  <s_m_subgroup_title>  (516) 
3C-like_protease_GHDDI_ligprep

>  <s_m_subgroupid>  (516) 
3C-like_protease_GHDDI_ligprep

>  <b_m_subgroup_collapsed>  (516) 
0

$$$$
14074
     RDKit          2D

 16 16  0  0  1  0  0  0  0  0999 V2000
   -5.4453    1.0986    0.0000 C   0  0  0  0  0  0  0  0  0  0  0  0
   -3.9454    1.1091    0.0000 C   0  0  0  0  0  0  0  0  0  0  0  0
   -3.1863   -0.1847    0.0000 O   0  0  0  0  0  0  0  0  0  0  0  0
   -1.6863   -0.1742    0.0000 C   0  0  0  0  0  0  0  0  0  0  0  0
   -0.9454    1.1301    0.0000 O   0  0  0  0  0  0  0  0  0  0  0  0
   -0.9273   -1.4679    0.0000 C   0  0  0  0  0  0  0  0  0  0  0  0
   -1.6681   -2.7722    0.0000 C   0  0  0  0  0  0  0  0  0  0  0  0
    0.5727   -1.4574    0.0000 C   0  0  0  0  0  0  0  0  0  0  0  0
    1.3318   -2.7512    0.0000 O   0  0  0  0  0  0  0  0  0  0  0  0
    1.3136   -0.1532    0.0000 C   0  0  0  0  0  0  0  0  0  0  0  0
    0.5545    1.1406    0.0000 C   0  0  0  0  0  0  0  0  0  0  0  0
    1.2954    2.4448    0.0000 C   0  0  0  0  0  0  0  0  0  0  0  0
    2.7954    2.4553    0.0000 C   0  0  0  0  0  0  0  0  0  0  0  0
    3.5545    1.1616    0.0000 C   0  0  0  0  0  0  0  0  0  0  0  0
    2.8136   -0.1427    0.0000 C   0  0  0  0  0  0  0  0  0  0  0  0
    3.5726   -1.4365    0.0000 Cl  0  0  0  0  0  0  0  0  0  0  0  0
  1  2  1  0
  2  3  1  0
  3  4  1  0
  4  5  2  0
  4  6  1  0
  6  7  2  0
  6  8  1  0
  8  9  1  0
  8 10  1  0
 10 11  2  0
 10 15  1  0
 11 12  1  0
 12 13  2  0
 13 14  1  0
 14 15  2  0
 15 16  1  0
M  END
>  <s_m_entry_id>  (517) 
1227

>  <s_m_entry_name>  (517) 
3C-like_protease_GHDDI_ligprep.846

>  <s_m_Source_Path>  (517) 
/home/jgilaber/drug_learning/drug_learning/datasets/SAR1/GHDDI

>  <s_m_Source_File>  (517) 
3C-like_protease_GHDDI_ligprep.sdf

>  <i_m_Source_File_Index>  (517) 
846

>  <s_m_subgroup_title>  (517) 
3C-like_protease_GHDDI_ligprep

>  <s_m_subgroupid>  (517) 
3C-like_protease_GHDDI_ligprep

>  <b_m_subgroup_collapsed>  (517) 
0

$$$$
14075
     RDKit          2D

 31 33  0  0  1  0  0  0  0  0999 V2000
   -2.2016   -0.6823    0.0000 O   0  0  0  0  0  0  0  0  0  0  0  0
   -1.1713    0.4079    0.0000 C   0  0  0  0  0  0  0  0  0  0  0  0
    0.2880    0.0607    0.0000 N   0  0  0  0  0  0  0  0  0  0  0  0
    0.7170   -1.3766    0.0000 C   0  0  0  0  0  0  0  0  0  0  0  0
    2.1762   -1.7238    0.0000 C   0  0  0  0  0  0  0  0  0  0  0  0
    3.2065   -0.6336    0.0000 O   0  0  0  0  0  0  0  0  0  0  0  0
    4.6658   -0.9808    0.0000 C   0  0  0  0  0  0  0  0  0  0  0  0
    5.0948   -2.4182    0.0000 O   0  0  0  0  0  0  0  0  0  0  0  0
    5.6961    0.1094    0.0000 C   0  0  0  0  0  0  0  0  0  0  0  0
    7.1554   -0.2378    0.0000 C   0  0  0  0  0  0  0  0  0  0  0  0
    8.1857    0.8524    0.0000 C   0  0  0  0  0  0  0  0  0  0  0  0
    7.7567    2.2897    0.0000 N   0  0  0  0  0  0  0  0  0  0  0  0
    6.2974    2.6369    0.0000 C   0  0  0  0  0  0  0  0  0  0  0  0
    5.2671    1.5467    0.0000 C   0  0  0  0  0  0  0  0  0  0  0  0
   -0.3133   -2.4668    0.0000 C   0  0  0  0  0  0  0  0  0  0  0  0
    0.1156   -3.9042    0.0000 O   0  0  0  0  0  0  0  0  0  0  0  0
   -1.7726   -2.1197    0.0000 N   0  0  0  0  0  0  0  0  0  0  0  0
   -2.8029   -3.2098    0.0000 C   0  0  0  0  0  0  0  0  0  0  0  0
   -4.2622   -2.8627    0.0000 C   0  0  0  0  0  0  0  0  0  0  0  0
   -5.2925   -3.9528    0.0000 C   0  0  0  0  0  0  0  0  0  0  0  0
   -4.8635   -5.3902    0.0000 C   0  0  0  0  0  0  0  0  0  0  0  0
   -3.4042   -5.7374    0.0000 C   0  0  0  0  0  0  0  0  0  0  0  0
   -2.3739   -4.6472    0.0000 C   0  0  0  0  0  0  0  0  0  0  0  0
   -1.6002    1.8452    0.0000 C   0  0  0  0  0  0  0  0  0  0  0  0
   -3.0595    2.1924    0.0000 C   0  0  0  0  0  0  0  0  0  0  0  0
   -3.4885    3.6298    0.0000 C   0  0  0  0  0  0  0  0  0  0  0  0
   -2.4582    4.7199    0.0000 C   0  0  0  0  0  0  0  0  0  0  0  0
   -2.8872    6.1573    0.0000 C   0  0  0  0  0  0  0  0  0  0  0  0
   -4.3464    6.5045    0.0000 C   0  0  0  0  0  0  0  0  0  0  0  0
   -5.3767    5.4143    0.0000 C   0  0  0  0  0  0  0  0  0  0  0  0
   -4.9478    3.9769    0.0000 C   0  0  0  0  0  0  0  0  0  0  0  0
  1  2  2  0
  2  3  1  0
  2 24  1  0
  3  4  1  0
  4  5  1  0
  4 15  1  0
  5  6  1  0
  6  7  1  0
  7  8  2  0
  7  9  1  0
  9 10  2  0
  9 14  1  0
 10 11  1  0
 11 12  2  0
 12 13  1  0
 13 14  2  0
 15 16  2  0
 15 17  1  0
 17 18  1  0
 18 19  1  0
 18 23  1  0
 19 20  1  0
 20 21  1  0
 21 22  1  0
 22 23  1  0
 24 25  2  0
 25 26  1  0
 26 27  2  0
 26 31  1  0
 27 28  1  0
 28 29  2  0
 29 30  1  0
 30 31  2  0
M  END
>  <s_m_entry_id>  (518) 
1229

>  <s_m_entry_name>  (518) 
3C-like_protease_GHDDI_ligprep.848

>  <s_m_Source_Path>  (518) 
/home/jgilaber/drug_learning/drug_learning/datasets/SAR1/GHDDI

>  <s_m_Source_File>  (518) 
3C-like_protease_GHDDI_ligprep.sdf

>  <i_m_Source_File_Index>  (518) 
848

>  <s_m_subgroup_title>  (518) 
3C-like_protease_GHDDI_ligprep

>  <s_m_subgroupid>  (518) 
3C-like_protease_GHDDI_ligprep

>  <b_m_subgroup_collapsed>  (518) 
0

$$$$
14076
     RDKit          2D

 41 46  0  0  1  0  0  0  0  0999 V2000
   -3.1212    4.4206    0.0000 C   0  0  0  0  0  0  0  0  0  0  0  0
   -2.2870    3.1740    0.0000 O   0  0  0  0  0  0  0  0  0  0  0  0
   -2.9494    1.8282    0.0000 C   0  0  0  0  0  0  0  0  0  0  0  0
   -4.4461    1.7289    0.0000 C   0  0  0  0  0  0  0  0  0  0  0  0
   -5.1085    0.3831    0.0000 C   0  0  0  0  0  0  0  0  0  0  0  0
   -4.2742   -0.8634    0.0000 C   0  0  0  0  0  0  0  0  0  0  0  0
   -2.7775   -0.7642    0.0000 C   0  0  0  0  0  0  0  0  0  0  0  0
   -2.1151    0.5816    0.0000 C   0  0  0  0  0  0  0  0  0  0  0  0
   -0.6184    0.6808    0.0000 N   0  0  0  0  0  0  0  0  0  0  0  0
    0.2159   -0.5658    0.0000 C   0  0  0  0  0  0  0  0  0  0  0  0
   -0.4465   -1.9116    0.0000 N   0  0  0  0  0  0  0  0  0  0  0  0
    0.3878   -3.1581    0.0000 C   0  0  0  0  0  0  0  0  0  0  0  0
    1.8845   -3.0589    0.0000 C   0  0  0  0  0  0  0  0  0  0  0  0
    2.7188   -4.3055    0.0000 C   0  0  0  0  0  0  0  0  0  0  0  0
    4.2155   -4.2063    0.0000 C   0  0  0  0  0  0  0  0  0  0  0  0
    4.8779   -2.8604    0.0000 C   0  0  0  0  0  0  0  0  0  0  0  0
    6.3747   -2.7612    0.0000 O   0  0  0  0  0  0  0  0  0  0  0  0
    4.0436   -1.6139    0.0000 N   0  0  0  0  0  0  0  0  0  0  0  0
    4.7061   -0.2681    0.0000 C   0  0  0  0  0  0  0  0  0  0  0  0
    6.2028   -0.1688    0.0000 C   0  0  0  0  0  0  0  0  0  0  0  0
    6.8652    1.1770    0.0000 C   0  0  0  0  0  0  0  0  0  0  0  0
    6.0309    2.4236    0.0000 C   0  0  0  0  0  0  0  0  0  0  0  0
    4.5342    2.3243    0.0000 C   0  0  0  0  0  0  0  0  0  0  0  0
    3.6999    3.5709    0.0000 N   0  0  0  0  0  0  0  0  0  0  0  0
    4.3623    4.9167    0.0000 C   0  0  0  0  0  0  0  0  0  0  0  0
    5.8590    5.0159    0.0000 O   0  0  0  0  0  0  0  0  0  0  0  0
    3.5280    6.1633    0.0000 C   0  0  0  0  0  0  0  0  0  0  0  0
    4.1905    7.5091    0.0000 C   0  0  0  0  0  0  0  0  0  0  0  0
    3.8718    0.9785    0.0000 C   0  0  0  0  0  0  0  0  0  0  0  0
    2.5469   -1.7131    0.0000 C   0  0  0  0  0  0  0  0  0  0  0  0
    1.7126   -0.4665    0.0000 N   0  0  0  0  0  0  0  0  0  0  0  0
    2.0564   -5.6513    0.0000 C   0  0  0  0  0  0  0  0  0  0  0  0
    2.1556   -7.1480    0.0000 C   0  0  0  0  0  0  0  0  0  0  0  0
    0.8098   -6.4856    0.0000 C   0  0  0  0  0  0  0  0  0  0  0  0
   -6.6052    0.2839    0.0000 N   0  0  0  0  0  0  0  0  0  0  0  0
   -7.4395    1.5305    0.0000 C   0  0  0  0  0  0  0  0  0  0  0  0
   -8.9362    1.4313    0.0000 C   0  0  0  0  0  0  0  0  0  0  0  0
   -9.5987    0.0854    0.0000 N   0  0  0  0  0  0  0  0  0  0  0  0
  -11.0954   -0.0138    0.0000 C   0  0  0  0  0  0  0  0  0  0  0  0
   -8.7644   -1.1611    0.0000 C   0  0  0  0  0  0  0  0  0  0  0  0
   -7.2676   -1.0619    0.0000 C   0  0  0  0  0  0  0  0  0  0  0  0
  1  2  1  0
  2  3  1  0
  3  4  2  0
  3  8  1  0
  4  5  1  0
  5  6  2  0
  5 35  1  0
  6  7  1  0
  7  8  2  0
  8  9  1  0
  9 10  1  0
 10 11  2  0
 10 31  1  0
 11 12  1  0
 12 13  2  0
 13 14  1  0
 13 30  1  0
 14 15  2  0
 14 32  1  0
 15 16  1  0
 16 17  2  0
 16 18  1  0
 18 19  1  0
 18 30  1  0
 19 20  2  0
 19 29  1  0
 20 21  1  0
 21 22  2  0
 22 23  1  0
 23 24  1  0
 23 29  2  0
 24 25  1  0
 25 26  2  0
 25 27  1  0
 27 28  2  0
 30 31  2  0
 32 33  1  0
 32 34  1  0
 33 34  1  0
 35 36  1  0
 35 41  1  0
 36 37  1  0
 37 38  1  0
 38 39  1  0
 38 40  1  0
 40 41  1  0
M  CHG  1  38   1
M  END
>  <s_m_entry_id>  (519) 
1230

>  <s_m_entry_name>  (519) 
3C-like_protease_GHDDI_ligprep.849

>  <s_m_Source_Path>  (519) 
/home/jgilaber/drug_learning/drug_learning/datasets/SAR1/GHDDI

>  <s_m_Source_File>  (519) 
3C-like_protease_GHDDI_ligprep.sdf

>  <i_m_Source_File_Index>  (519) 
849

>  <s_m_subgroup_title>  (519) 
3C-like_protease_GHDDI_ligprep

>  <s_m_subgroupid>  (519) 
3C-like_protease_GHDDI_ligprep

>  <b_m_subgroup_collapsed>  (519) 
0

$$$$
14077
     RDKit          2D

 23 25  0  0  1  0  0  0  0  0999 V2000
   -6.6957    0.2918    0.0000 C   0  0  0  0  0  0  0  0  0  0  0  0
   -5.2235    0.5794    0.0000 O   0  0  0  0  0  0  0  0  0  0  0  0
   -4.2384   -0.5518    0.0000 C   0  0  0  0  0  0  0  0  0  0  0  0
   -4.7254   -1.9705    0.0000 O   0  0  0  0  0  0  0  0  0  0  0  0
   -2.7662   -0.2641    0.0000 C   0  0  0  0  0  0  0  0  0  0  0  0
   -2.7386   -1.7639    0.0000 C   0  0  0  0  0  0  0  0  0  0  0  0
   -3.3051    1.1357    0.0000 C   0  0  0  0  0  0  0  0  0  0  0  0
   -2.3622    2.3023    0.0000 C   0  0  0  0  0  0  0  0  0  0  0  0
   -0.8805    2.0691    0.0000 C   0  0  0  0  0  0  0  0  0  0  0  0
   -0.3416    0.6692    0.0000 C   0  0  0  0  0  0  0  0  0  0  0  0
    0.6013    1.8358    0.0000 C   0  0  0  0  0  0  0  0  0  0  0  0
   -1.2844   -0.4974    0.0000 C   0  0  0  0  0  0  0  0  0  0  0  0
   -0.7456   -1.8972    0.0000 C   0  0  0  0  0  0  0  0  0  0  0  0
    0.7362   -2.1305    0.0000 C   0  0  0  0  0  0  0  0  0  0  0  0
    1.6791   -0.9639    0.0000 C   0  0  0  0  0  0  0  0  0  0  0  0
    3.1608   -1.1971    0.0000 C   0  0  0  0  0  0  0  0  0  0  0  0
    4.1037   -0.0305    0.0000 C   0  0  0  0  0  0  0  0  0  0  0  0
    3.5648    1.3694    0.0000 C   0  0  0  0  0  0  0  0  0  0  0  0
    2.0830    1.6026    0.0000 C   0  0  0  0  0  0  0  0  0  0  0  0
    1.1402    0.4360    0.0000 C   0  0  0  0  0  0  0  0  0  0  0  0
    5.5854   -0.2637    0.0000 C   0  0  0  0  0  0  0  0  0  0  0  0
    6.1243   -1.6636    0.0000 C   0  0  0  0  0  0  0  0  0  0  0  0
    6.5283    0.9029    0.0000 C   0  0  0  0  0  0  0  0  0  0  0  0
  1  2  1  0
  2  3  1  0
  3  4  2  0
  3  5  1  0
  5  6  1  0
  5  7  1  0
  5 12  1  0
  7  8  1  0
  8  9  1  0
  9 10  1  0
 10 11  1  0
 10 12  1  0
 10 20  1  0
 12 13  1  0
 13 14  1  0
 14 15  1  0
 15 16  2  0
 15 20  1  0
 16 17  1  0
 17 18  2  0
 17 21  1  0
 18 19  1  0
 19 20  2  0
 21 22  1  0
 21 23  1  0
M  END
>  <s_m_entry_id>  (520) 
1231

>  <s_m_entry_name>  (520) 
3C-like_protease_GHDDI_ligprep.850

>  <s_m_Source_Path>  (520) 
/home/jgilaber/drug_learning/drug_learning/datasets/SAR1/GHDDI

>  <s_m_Source_File>  (520) 
3C-like_protease_GHDDI_ligprep.sdf

>  <i_m_Source_File_Index>  (520) 
850

>  <s_m_subgroup_title>  (520) 
3C-like_protease_GHDDI_ligprep

>  <s_m_subgroupid>  (520) 
3C-like_protease_GHDDI_ligprep

>  <b_m_subgroup_collapsed>  (520) 
0

$$$$
14078
     RDKit          2D

 31 33  0  0  1  0  0  0  0  0999 V2000
   -2.2016   -0.6823    0.0000 O   0  0  0  0  0  0  0  0  0  0  0  0
   -1.1713    0.4079    0.0000 C   0  0  0  0  0  0  0  0  0  0  0  0
    0.2880    0.0607    0.0000 N   0  0  0  0  0  0  0  0  0  0  0  0
    0.7170   -1.3766    0.0000 C   0  0  0  0  0  0  0  0  0  0  0  0
    2.1762   -1.7238    0.0000 C   0  0  0  0  0  0  0  0  0  0  0  0
    3.2065   -0.6336    0.0000 O   0  0  0  0  0  0  0  0  0  0  0  0
    4.6658   -0.9808    0.0000 C   0  0  0  0  0  0  0  0  0  0  0  0
    5.0948   -2.4182    0.0000 O   0  0  0  0  0  0  0  0  0  0  0  0
    5.6961    0.1094    0.0000 C   0  0  0  0  0  0  0  0  0  0  0  0
    7.1554   -0.2378    0.0000 C   0  0  0  0  0  0  0  0  0  0  0  0
    8.1857    0.8524    0.0000 C   0  0  0  0  0  0  0  0  0  0  0  0
    7.7567    2.2897    0.0000 N   0  0  0  0  0  0  0  0  0  0  0  0
    6.2974    2.6369    0.0000 C   0  0  0  0  0  0  0  0  0  0  0  0
    5.2671    1.5467    0.0000 C   0  0  0  0  0  0  0  0  0  0  0  0
   -0.3133   -2.4668    0.0000 C   0  0  0  0  0  0  0  0  0  0  0  0
    0.1156   -3.9042    0.0000 O   0  0  0  0  0  0  0  0  0  0  0  0
   -1.7726   -2.1197    0.0000 N   0  0  0  0  0  0  0  0  0  0  0  0
   -2.8029   -3.2098    0.0000 C   0  0  0  0  0  0  0  0  0  0  0  0
   -4.2622   -2.8627    0.0000 C   0  0  0  0  0  0  0  0  0  0  0  0
   -5.2925   -3.9528    0.0000 C   0  0  0  0  0  0  0  0  0  0  0  0
   -4.8635   -5.3902    0.0000 C   0  0  0  0  0  0  0  0  0  0  0  0
   -3.4042   -5.7374    0.0000 C   0  0  0  0  0  0  0  0  0  0  0  0
   -2.3739   -4.6472    0.0000 C   0  0  0  0  0  0  0  0  0  0  0  0
   -1.6002    1.8452    0.0000 C   0  0  0  0  0  0  0  0  0  0  0  0
   -3.0595    2.1924    0.0000 C   0  0  0  0  0  0  0  0  0  0  0  0
   -3.4885    3.6298    0.0000 C   0  0  0  0  0  0  0  0  0  0  0  0
   -2.4582    4.7199    0.0000 C   0  0  0  0  0  0  0  0  0  0  0  0
   -2.8872    6.1573    0.0000 C   0  0  0  0  0  0  0  0  0  0  0  0
   -4.3464    6.5045    0.0000 C   0  0  0  0  0  0  0  0  0  0  0  0
   -5.3767    5.4143    0.0000 C   0  0  0  0  0  0  0  0  0  0  0  0
   -4.9478    3.9769    0.0000 C   0  0  0  0  0  0  0  0  0  0  0  0
  1  2  2  0
  2  3  1  0
  2 24  1  0
  3  4  1  0
  4  5  1  0
  4 15  1  0
  5  6  1  0
  6  7  1  0
  7  8  2  0
  7  9  1  0
  9 10  2  0
  9 14  1  0
 10 11  1  0
 11 12  2  0
 12 13  1  0
 13 14  2  0
 15 16  2  0
 15 17  1  0
 17 18  1  0
 18 19  1  0
 18 23  1  0
 19 20  1  0
 20 21  1  0
 21 22  1  0
 22 23  1  0
 24 25  2  0
 25 26  1  0
 26 27  2  0
 26 31  1  0
 27 28  1  0
 28 29  2  0
 29 30  1  0
 30 31  2  0
M  END
>  <s_m_entry_id>  (521) 
1232

>  <s_m_entry_name>  (521) 
3C-like_protease_GHDDI_ligprep.851

>  <s_m_Source_Path>  (521) 
/home/jgilaber/drug_learning/drug_learning/datasets/SAR1/GHDDI

>  <s_m_Source_File>  (521) 
3C-like_protease_GHDDI_ligprep.sdf

>  <i_m_Source_File_Index>  (521) 
851

>  <s_m_subgroup_title>  (521) 
3C-like_protease_GHDDI_ligprep

>  <s_m_subgroupid>  (521) 
3C-like_protease_GHDDI_ligprep

>  <b_m_subgroup_collapsed>  (521) 
0

$$$$
14081
     RDKit          2D

 22 24  0  0  1  0  0  0  0  0999 V2000
   -5.8023    0.3471    0.0000 C   0  0  0  0  0  0  0  0  0  0  0  0
   -4.7611   -0.7326    0.0000 C   0  0  0  0  0  0  0  0  0  0  0  0
   -5.1755   -2.1742    0.0000 C   0  0  0  0  0  0  0  0  0  0  0  0
   -3.3054   -0.3707    0.0000 C   0  0  0  0  0  0  0  0  0  0  0  0
   -2.2641   -1.4505    0.0000 C   0  0  0  0  0  0  0  0  0  0  0  0
   -0.8084   -1.0886    0.0000 C   0  0  0  0  0  0  0  0  0  0  0  0
    0.2328   -2.1683    0.0000 C   0  0  0  0  0  0  0  0  0  0  0  0
    1.6885   -1.8065    0.0000 C   0  0  0  0  0  0  0  0  0  0  0  0
    2.1030   -0.3648    0.0000 C   0  0  0  0  0  0  0  0  0  0  0  0
    3.5587   -0.0030    0.0000 C   0  0  0  0  0  0  0  0  0  0  0  0
    5.0503   -0.1608    0.0000 C   0  0  0  0  0  0  0  0  0  0  0  0
    3.6623   -1.4994    0.0000 C   0  0  0  0  0  0  0  0  0  0  0  0
    5.0100   -2.1579    0.0000 O   0  0  0  0  0  0  0  0  0  0  0  0
    3.9731    1.4386    0.0000 C   0  0  0  0  0  0  0  0  0  0  0  0
    2.9319    2.5184    0.0000 C   0  0  0  0  0  0  0  0  0  0  0  0
    1.4762    2.1565    0.0000 C   0  0  0  0  0  0  0  0  0  0  0  0
    1.0617    0.7149    0.0000 C   0  0  0  0  0  0  0  0  0  0  0  0
    0.0205    1.7946    0.0000 C   0  0  0  0  0  0  0  0  0  0  0  0
   -0.3940    0.3530    0.0000 C   0  0  0  0  0  0  0  0  0  0  0  0
   -1.4352    1.4327    0.0000 C   0  0  0  0  0  0  0  0  0  0  0  0
   -2.8909    1.0709    0.0000 C   0  0  0  0  0  0  0  0  0  0  0  0
   -3.9321    2.1506    0.0000 O   0  0  0  0  0  0  0  0  0  0  0  0
  1  2  1  0
  2  3  1  0
  2  4  1  0
  4  5  2  0
  4 21  1  0
  5  6  1  0
  6  7  1  0
  6 19  2  0
  7  8  1  0
  8  9  1  0
  9 10  1  0
  9 17  1  0
 10 11  1  0
 10 12  1  0
 10 14  1  0
 12 13  1  0
 14 15  1  0
 15 16  1  0
 16 17  1  0
 17 18  1  0
 17 19  1  0
 19 20  1  0
 20 21  2  0
 21 22  1  0
M  END
>  <s_m_entry_id>  (522) 
1236

>  <s_m_entry_name>  (522) 
3C-like_protease_GHDDI_ligprep.855

>  <s_m_Source_Path>  (522) 
/home/jgilaber/drug_learning/drug_learning/datasets/SAR1/GHDDI

>  <s_m_Source_File>  (522) 
3C-like_protease_GHDDI_ligprep.sdf

>  <i_m_Source_File_Index>  (522) 
855

>  <s_m_subgroup_title>  (522) 
3C-like_protease_GHDDI_ligprep

>  <s_m_subgroupid>  (522) 
3C-like_protease_GHDDI_ligprep

>  <b_m_subgroup_collapsed>  (522) 
0

$$$$
14082
     RDKit          2D

 22 22  0  0  1  0  0  0  0  0999 V2000
    3.1176   -3.2736    0.0000 O   0  0  0  0  0  0  0  0  0  0  0  0
    3.9023   -1.9952    0.0000 C   0  0  0  0  0  0  0  0  0  0  0  0
    3.1875   -0.6765    0.0000 C   0  0  0  0  0  0  0  0  0  0  0  0
    1.6880   -0.6361    0.0000 O   0  0  0  0  0  0  0  0  0  0  0  0
    0.9733    0.6826    0.0000 C   0  0  0  0  0  0  0  0  0  0  0  0
   -0.5262    0.7230    0.0000 S   0  0  0  0  0  0  0  0  0  0  0  0
   -1.3109   -0.5554    0.0000 C   0  0  0  0  0  0  0  0  0  0  0  0
   -2.8103   -0.5150    0.0000 N   0  0  0  0  0  0  0  0  0  0  0  0
   -3.5251    0.8037    0.0000 O   0  0  0  0  0  0  0  0  0  0  0  0
   -5.0246    0.8441    0.0000 S   0  0  0  0  0  0  0  0  0  0  0  0
   -5.0649   -0.6554    0.0000 O   0  0  0  0  0  0  0  0  0  0  0  0
   -4.9842    2.3435    0.0000 O   0  0  0  0  0  0  0  0  0  0  0  0
   -6.5240    0.8844    0.0000 O   0  0  0  0  0  0  0  0  0  0  0  0
   -0.5961   -1.8742    0.0000 C   0  0  0  0  0  0  0  0  0  0  0  0
   -1.3808   -3.1525    0.0000 C   0  0  0  0  0  0  0  0  0  0  0  0
   -0.6660   -4.4713    0.0000 C   0  0  0  0  0  0  0  0  0  0  0  0
    1.7579    1.9610    0.0000 C   0  0  0  0  0  0  0  0  0  0  0  0
    1.0432    3.2798    0.0000 O   0  0  0  0  0  0  0  0  0  0  0  0
    3.2574    1.9207    0.0000 C   0  0  0  0  0  0  0  0  0  0  0  0
    4.0421    3.1991    0.0000 O   0  0  0  0  0  0  0  0  0  0  0  0
    3.9722    0.6019    0.0000 C   0  0  0  0  0  0  0  0  0  0  0  0
    5.4716    0.5616    0.0000 O   0  0  0  0  0  0  0  0  0  0  0  0
  1  2  1  0
  2  3  1  0
  3  4  1  0
  3 21  1  0
  4  5  1  0
  5  6  1  0
  5 17  1  0
  6  7  1  0
  7  8  2  0
  7 14  1  0
  8  9  1  0
  9 10  1  0
 10 11  2  0
 10 12  2  0
 10 13  1  0
 14 15  1  0
 15 16  2  0
 17 18  1  0
 17 19  1  0
 19 20  1  0
 19 21  1  0
 21 22  1  0
M  CHG  1  13  -1
M  END
>  <s_m_entry_id>  (523) 
1237

>  <s_m_entry_name>  (523) 
3C-like_protease_GHDDI_ligprep.856

>  <s_m_Source_Path>  (523) 
/home/jgilaber/drug_learning/drug_learning/datasets/SAR1/GHDDI

>  <s_m_Source_File>  (523) 
3C-like_protease_GHDDI_ligprep.sdf

>  <i_m_Source_File_Index>  (523) 
856

>  <s_m_subgroup_title>  (523) 
3C-like_protease_GHDDI_ligprep

>  <s_m_subgroupid>  (523) 
3C-like_protease_GHDDI_ligprep

>  <b_m_subgroup_collapsed>  (523) 
0

$$$$
14083
     RDKit          2D

 29 31  0  0  1  0  0  0  0  0999 V2000
    3.0041    2.3634    0.0000 O   0  0  0  0  0  0  0  0  0  0  0  0
    2.5715    0.9272    0.0000 C   0  0  0  0  0  0  0  0  0  0  0  0
    3.5991   -0.1656    0.0000 N   0  0  0  0  0  0  0  0  0  0  0  0
    5.0592    0.1780    0.0000 C   0  0  0  0  0  0  0  0  0  0  0  0
    6.0868   -0.9148    0.0000 C   0  0  0  0  0  0  0  0  0  0  0  0
    7.5469   -0.5712    0.0000 C   0  0  0  0  0  0  0  0  0  0  0  0
    7.9795    0.8651    0.0000 C   0  0  0  0  0  0  0  0  0  0  0  0
    6.9519    1.9578    0.0000 C   0  0  0  0  0  0  0  0  0  0  0  0
    5.4918    1.6143    0.0000 C   0  0  0  0  0  0  0  0  0  0  0  0
    1.1114    0.5836    0.0000 C   0  0  0  0  0  0  0  0  0  0  0  0
    0.0838    1.6764    0.0000 C   0  0  0  0  0  0  0  0  0  0  0  0
   -1.3763    1.3328    0.0000 O   0  0  0  0  0  0  0  0  0  0  0  0
   -2.4039    2.4255    0.0000 C   0  0  0  0  0  0  0  0  0  0  0  0
   -1.9714    3.8618    0.0000 O   0  0  0  0  0  0  0  0  0  0  0  0
   -3.8640    2.0820    0.0000 C   0  0  0  0  0  0  0  0  0  0  0  0
   -4.8916    3.1747    0.0000 C   0  0  0  0  0  0  0  0  0  0  0  0
   -6.3518    2.8312    0.0000 C   0  0  0  0  0  0  0  0  0  0  0  0
   -6.7843    1.3949    0.0000 C   0  0  0  0  0  0  0  0  0  0  0  0
   -5.7567    0.3022    0.0000 C   0  0  0  0  0  0  0  0  0  0  0  0
   -4.2966    0.6457    0.0000 C   0  0  0  0  0  0  0  0  0  0  0  0
    0.6788   -0.8527    0.0000 N   0  0  0  0  0  0  0  0  0  0  0  0
   -0.7813   -1.1962    0.0000 C   0  0  0  0  0  0  0  0  0  0  0  0
   -1.8089   -0.1035    0.0000 O   0  0  0  0  0  0  0  0  0  0  0  0
   -1.2138   -2.6325    0.0000 C   0  0  0  0  0  0  0  0  0  0  0  0
   -2.6739   -2.9760    0.0000 C   0  0  0  0  0  0  0  0  0  0  0  0
   -3.1065   -4.4123    0.0000 C   0  0  0  0  0  0  0  0  0  0  0  0
   -2.0789   -5.5051    0.0000 C   0  0  0  0  0  0  0  0  0  0  0  0
   -0.6188   -5.1615    0.0000 C   0  0  0  0  0  0  0  0  0  0  0  0
   -0.1862   -3.7252    0.0000 C   0  0  0  0  0  0  0  0  0  0  0  0
  1  2  2  0
  2  3  1  0
  2 10  1  0
  3  4  1  0
  4  5  1  0
  4  9  1  0
  5  6  1  0
  6  7  1  0
  7  8  1  0
  8  9  1  0
 10 11  1  0
 10 21  1  0
 11 12  1  0
 12 13  1  0
 13 14  2  0
 13 15  1  0
 15 16  2  0
 15 20  1  0
 16 17  1  0
 17 18  2  0
 18 19  1  0
 19 20  2  0
 21 22  1  0
 22 23  2  0
 22 24  1  0
 24 25  2  0
 24 29  1  0
 25 26  1  0
 26 27  2  0
 27 28  1  0
 28 29  2  0
M  END
>  <s_m_entry_id>  (524) 
1269

>  <s_m_entry_name>  (524) 
3C-like_protease_GHDDI_ligprep.888

>  <s_m_Source_Path>  (524) 
/home/jgilaber/drug_learning/drug_learning/datasets/SAR1/GHDDI

>  <s_m_Source_File>  (524) 
3C-like_protease_GHDDI_ligprep.sdf

>  <i_m_Source_File_Index>  (524) 
888

>  <s_m_subgroup_title>  (524) 
3C-like_protease_GHDDI_ligprep

>  <s_m_subgroupid>  (524) 
3C-like_protease_GHDDI_ligprep

>  <b_m_subgroup_collapsed>  (524) 
0

$$$$
14084
     RDKit          2D

 32 34  0  0  1  0  0  0  0  0999 V2000
   -1.7594   -0.9177    0.0000 O   0  0  0  0  0  0  0  0  0  0  0  0
   -0.7297    0.1731    0.0000 C   0  0  0  0  0  0  0  0  0  0  0  0
    0.7297   -0.1731    0.0000 N   0  0  0  0  0  0  0  0  0  0  0  0
    1.1596   -1.6102    0.0000 C   0  0  0  0  0  0  0  0  0  0  0  0
    2.6191   -1.9565    0.0000 C   0  0  0  0  0  0  0  0  0  0  0  0
    3.6487   -0.8657    0.0000 O   0  0  0  0  0  0  0  0  0  0  0  0
    5.1082   -1.2120    0.0000 C   0  0  0  0  0  0  0  0  0  0  0  0
    5.5380   -2.6491    0.0000 O   0  0  0  0  0  0  0  0  0  0  0  0
    6.1378   -0.1212    0.0000 C   0  0  0  0  0  0  0  0  0  0  0  0
    7.5973   -0.4675    0.0000 C   0  0  0  0  0  0  0  0  0  0  0  0
    8.6269    0.6233    0.0000 C   0  0  0  0  0  0  0  0  0  0  0  0
    8.1971    2.0604    0.0000 C   0  0  0  0  0  0  0  0  0  0  0  0
    6.7376    2.4067    0.0000 C   0  0  0  0  0  0  0  0  0  0  0  0
    5.7080    1.3159    0.0000 C   0  0  0  0  0  0  0  0  0  0  0  0
    0.1299   -2.7010    0.0000 C   0  0  0  0  0  0  0  0  0  0  0  0
    0.5598   -4.1381    0.0000 O   0  0  0  0  0  0  0  0  0  0  0  0
   -1.3295   -2.3547    0.0000 N   0  0  0  0  0  0  0  0  0  0  0  0
   -2.3592   -3.4455    0.0000 C   0  0  0  0  0  0  0  0  0  0  0  0
   -3.8187   -3.0993    0.0000 C   0  0  0  0  0  0  0  0  0  0  0  0
   -4.2485   -1.6622    0.0000 C   0  0  0  0  0  0  0  0  0  0  0  0
   -5.7080   -1.3159    0.0000 C   0  0  0  0  0  0  0  0  0  0  0  0
   -6.7376   -2.4067    0.0000 C   0  0  0  0  0  0  0  0  0  0  0  0
   -6.3078   -3.8438    0.0000 C   0  0  0  0  0  0  0  0  0  0  0  0
   -4.8483   -4.1901    0.0000 C   0  0  0  0  0  0  0  0  0  0  0  0
   -1.1596    1.6102    0.0000 C   0  0  0  0  0  0  0  0  0  0  0  0
   -2.6191    1.9565    0.0000 C   0  0  0  0  0  0  0  0  0  0  0  0
   -3.0489    3.3936    0.0000 C   0  0  0  0  0  0  0  0  0  0  0  0
   -2.0193    4.4844    0.0000 C   0  0  0  0  0  0  0  0  0  0  0  0
   -2.4491    5.9215    0.0000 C   0  0  0  0  0  0  0  0  0  0  0  0
   -3.9086    6.2678    0.0000 C   0  0  0  0  0  0  0  0  0  0  0  0
   -4.9382    5.1770    0.0000 C   0  0  0  0  0  0  0  0  0  0  0  0
   -4.5084    3.7399    0.0000 C   0  0  0  0  0  0  0  0  0  0  0  0
  1  2  2  0
  2  3  1  0
  2 25  1  0
  3  4  1  0
  4  5  1  0
  4 15  1  0
  5  6  1  0
  6  7  1  0
  7  8  2  0
  7  9  1  0
  9 10  2  0
  9 14  1  0
 10 11  1  0
 11 12  2  0
 12 13  1  0
 13 14  2  0
 15 16  2  0
 15 17  1  0
 17 18  1  0
 18 19  1  0
 19 20  2  0
 19 24  1  0
 20 21  1  0
 21 22  2  0
 22 23  1  0
 23 24  2  0
 25 26  2  0
 26 27  1  0
 27 28  2  0
 27 32  1  0
 28 29  1  0
 29 30  2  0
 30 31  1  0
 31 32  2  0
M  END
>  <s_m_entry_id>  (525) 
1270

>  <s_m_entry_name>  (525) 
3C-like_protease_GHDDI_ligprep.889

>  <s_m_Source_Path>  (525) 
/home/jgilaber/drug_learning/drug_learning/datasets/SAR1/GHDDI

>  <s_m_Source_File>  (525) 
3C-like_protease_GHDDI_ligprep.sdf

>  <i_m_Source_File_Index>  (525) 
889

>  <s_m_subgroup_title>  (525) 
3C-like_protease_GHDDI_ligprep

>  <s_m_subgroupid>  (525) 
3C-like_protease_GHDDI_ligprep

>  <b_m_subgroup_collapsed>  (525) 
0

$$$$
14085
     RDKit          2D

 32 34  0  0  1  0  0  0  0  0999 V2000
   -1.7594   -0.9177    0.0000 O   0  0  0  0  0  0  0  0  0  0  0  0
   -0.7297    0.1731    0.0000 C   0  0  0  0  0  0  0  0  0  0  0  0
    0.7297   -0.1731    0.0000 N   0  0  0  0  0  0  0  0  0  0  0  0
    1.1596   -1.6102    0.0000 C   0  0  0  0  0  0  0  0  0  0  0  0
    2.6191   -1.9565    0.0000 C   0  0  0  0  0  0  0  0  0  0  0  0
    3.6487   -0.8657    0.0000 O   0  0  0  0  0  0  0  0  0  0  0  0
    5.1082   -1.2120    0.0000 C   0  0  0  0  0  0  0  0  0  0  0  0
    5.5380   -2.6491    0.0000 O   0  0  0  0  0  0  0  0  0  0  0  0
    6.1378   -0.1212    0.0000 C   0  0  0  0  0  0  0  0  0  0  0  0
    7.5973   -0.4675    0.0000 C   0  0  0  0  0  0  0  0  0  0  0  0
    8.6269    0.6233    0.0000 C   0  0  0  0  0  0  0  0  0  0  0  0
    8.1971    2.0604    0.0000 C   0  0  0  0  0  0  0  0  0  0  0  0
    6.7376    2.4067    0.0000 C   0  0  0  0  0  0  0  0  0  0  0  0
    5.7080    1.3159    0.0000 C   0  0  0  0  0  0  0  0  0  0  0  0
    0.1299   -2.7010    0.0000 C   0  0  0  0  0  0  0  0  0  0  0  0
    0.5598   -4.1381    0.0000 O   0  0  0  0  0  0  0  0  0  0  0  0
   -1.3295   -2.3547    0.0000 N   0  0  0  0  0  0  0  0  0  0  0  0
   -2.3592   -3.4455    0.0000 C   0  0  0  0  0  0  0  0  0  0  0  0
   -3.8187   -3.0993    0.0000 C   0  0  0  0  0  0  0  0  0  0  0  0
   -4.2485   -1.6622    0.0000 C   0  0  0  0  0  0  0  0  0  0  0  0
   -5.7080   -1.3159    0.0000 C   0  0  0  0  0  0  0  0  0  0  0  0
   -6.7376   -2.4067    0.0000 C   0  0  0  0  0  0  0  0  0  0  0  0
   -6.3078   -3.8438    0.0000 C   0  0  0  0  0  0  0  0  0  0  0  0
   -4.8483   -4.1901    0.0000 C   0  0  0  0  0  0  0  0  0  0  0  0
   -1.1596    1.6102    0.0000 C   0  0  0  0  0  0  0  0  0  0  0  0
   -2.6191    1.9565    0.0000 C   0  0  0  0  0  0  0  0  0  0  0  0
   -3.0489    3.3936    0.0000 C   0  0  0  0  0  0  0  0  0  0  0  0
   -2.0193    4.4844    0.0000 C   0  0  0  0  0  0  0  0  0  0  0  0
   -2.4491    5.9215    0.0000 C   0  0  0  0  0  0  0  0  0  0  0  0
   -3.9086    6.2678    0.0000 C   0  0  0  0  0  0  0  0  0  0  0  0
   -4.9382    5.1770    0.0000 C   0  0  0  0  0  0  0  0  0  0  0  0
   -4.5084    3.7399    0.0000 C   0  0  0  0  0  0  0  0  0  0  0  0
  1  2  2  0
  2  3  1  0
  2 25  1  0
  3  4  1  0
  4  5  1  0
  4 15  1  0
  5  6  1  0
  6  7  1  0
  7  8  2  0
  7  9  1  0
  9 10  2  0
  9 14  1  0
 10 11  1  0
 11 12  2  0
 12 13  1  0
 13 14  2  0
 15 16  2  0
 15 17  1  0
 17 18  1  0
 18 19  1  0
 19 20  2  0
 19 24  1  0
 20 21  1  0
 21 22  2  0
 22 23  1  0
 23 24  2  0
 25 26  2  0
 26 27  1  0
 27 28  2  0
 27 32  1  0
 28 29  1  0
 29 30  2  0
 30 31  1  0
 31 32  2  0
M  END
>  <s_m_entry_id>  (526) 
1271

>  <s_m_entry_name>  (526) 
3C-like_protease_GHDDI_ligprep.890

>  <s_m_Source_Path>  (526) 
/home/jgilaber/drug_learning/drug_learning/datasets/SAR1/GHDDI

>  <s_m_Source_File>  (526) 
3C-like_protease_GHDDI_ligprep.sdf

>  <i_m_Source_File_Index>  (526) 
890

>  <s_m_subgroup_title>  (526) 
3C-like_protease_GHDDI_ligprep

>  <s_m_subgroupid>  (526) 
3C-like_protease_GHDDI_ligprep

>  <b_m_subgroup_collapsed>  (526) 
0

$$$$
14086
     RDKit          2D

 29 32  0  0  1  0  0  0  0  0999 V2000
   -0.7176   -5.5902    0.0000 C   0  0  0  0  0  0  0  0  0  0  0  0
   -1.0532   -4.1282    0.0000 C   0  0  0  0  0  0  0  0  0  0  0  0
    0.0452   -3.1066    0.0000 C   0  0  0  0  0  0  0  0  0  0  0  0
   -0.2904   -1.6446    0.0000 C   0  0  0  0  0  0  0  0  0  0  0  0
    0.8079   -0.6230    0.0000 C   0  0  0  0  0  0  0  0  0  0  0  0
    2.2418   -1.0634    0.0000 C   0  0  0  0  0  0  0  0  0  0  0  0
    2.5774   -2.5254    0.0000 O   0  0  0  0  0  0  0  0  0  0  0  0
    3.3402   -0.0418    0.0000 C   0  0  0  0  0  0  0  0  0  0  0  0
    4.7741   -0.4822    0.0000 O   0  0  0  0  0  0  0  0  0  0  0  0
    5.8724    0.5394    0.0000 C   0  0  0  0  0  0  0  0  0  0  0  0
    7.2539    1.1237    0.0000 C   0  0  0  0  0  0  0  0  0  0  0  0
    6.6877   -0.7196    0.0000 C   0  0  0  0  0  0  0  0  0  0  0  0
    5.5368    2.0014    0.0000 C   0  0  0  0  0  0  0  0  0  0  0  0
    4.1029    2.4418    0.0000 C   0  0  0  0  0  0  0  0  0  0  0  0
    3.0046    1.4202    0.0000 C   0  0  0  0  0  0  0  0  0  0  0  0
    1.5707    1.8606    0.0000 C   0  0  0  0  0  0  0  0  0  0  0  0
    0.4724    0.8390    0.0000 C   0  0  0  0  0  0  0  0  0  0  0  0
   -0.9615    1.2794    0.0000 C   0  0  0  0  0  0  0  0  0  0  0  0
   -1.2971    2.7413    0.0000 C   0  0  0  0  0  0  0  0  0  0  0  0
   -2.7310    3.1817    0.0000 C   0  0  0  0  0  0  0  0  0  0  0  0
   -3.8293    2.1601    0.0000 C   0  0  0  0  0  0  0  0  0  0  0  0
   -5.2632    2.6005    0.0000 C   0  0  0  0  0  0  0  0  0  0  0  0
   -6.3616    1.5789    0.0000 C   0  0  0  0  0  0  0  0  0  0  0  0
   -6.0260    0.1169    0.0000 C   0  0  0  0  0  0  0  0  0  0  0  0
   -7.1243   -0.9047    0.0000 O   0  0  0  0  0  0  0  0  0  0  0  0
   -4.5921   -0.3235    0.0000 C   0  0  0  0  0  0  0  0  0  0  0  0
   -3.4938    0.6981    0.0000 C   0  0  0  0  0  0  0  0  0  0  0  0
   -2.0599    0.2578    0.0000 O   0  0  0  0  0  0  0  0  0  0  0  0
   -2.4871   -3.6878    0.0000 C   0  0  0  0  0  0  0  0  0  0  0  0
  1  2  1  0
  2  3  2  3
  2 29  1  0
  3  4  1  0
  4  5  1  0
  5  6  2  0
  5 17  1  0
  6  7  1  0
  6  8  1  0
  8  9  1  0
  8 15  2  0
  9 10  1  0
 10 11  1  0
 10 12  1  0
 10 13  1  0
 13 14  2  0
 14 15  1  0
 15 16  1  0
 16 17  2  0
 17 18  1  0
 18 19  1  0
 18 28  1  0
 19 20  1  0
 20 21  1  0
 21 22  2  0
 21 27  1  0
 22 23  1  0
 23 24  2  0
 24 25  1  0
 24 26  1  0
 26 27  2  0
 27 28  1  0
M  END
>  <s_m_entry_id>  (527) 
1274

>  <s_m_entry_name>  (527) 
3C-like_protease_GHDDI_ligprep.893

>  <s_m_Source_Path>  (527) 
/home/jgilaber/drug_learning/drug_learning/datasets/SAR1/GHDDI

>  <s_m_Source_File>  (527) 
3C-like_protease_GHDDI_ligprep.sdf

>  <i_m_Source_File_Index>  (527) 
893

>  <s_m_subgroup_title>  (527) 
3C-like_protease_GHDDI_ligprep

>  <s_m_subgroupid>  (527) 
3C-like_protease_GHDDI_ligprep

>  <b_m_subgroup_collapsed>  (527) 
0

$$$$
14087
     RDKit          2D

 25 29  0  0  1  0  0  0  0  0999 V2000
   -7.4326   -2.0729    0.0000 N   0  0  0  0  0  0  0  0  0  0  0  0
   -6.2329   -1.1724    0.0000 C   0  0  0  0  0  0  0  0  0  0  0  0
   -6.4129    0.3168    0.0000 C   0  0  0  0  0  0  0  0  0  0  0  0
   -5.2132    1.2172    0.0000 C   0  0  0  0  0  0  0  0  0  0  0  0
   -3.8336    0.6285    0.0000 C   0  0  0  0  0  0  0  0  0  0  0  0
   -2.4729    1.2598    0.0000 C   0  0  0  0  0  0  0  0  0  0  0  0
   -2.0316    2.6935    0.0000 C   0  0  0  0  0  0  0  0  0  0  0  0
   -0.5694    3.0281    0.0000 C   0  0  0  0  0  0  0  0  0  0  0  0
    0.4515    1.9291    0.0000 C   0  0  0  0  0  0  0  0  0  0  0  0
    0.0102    0.4955    0.0000 N   0  0  0  0  0  0  0  0  0  0  0  0
   -1.4520    0.1609    0.0000 C   0  0  0  0  0  0  0  0  0  0  0  0
   -2.1817   -1.1497    0.0000 C   0  0  0  0  0  0  0  0  0  0  0  0
   -3.6536   -0.8607    0.0000 C   0  0  0  0  0  0  0  0  0  0  0  0
   -4.8533   -1.7611    0.0000 C   0  0  0  0  0  0  0  0  0  0  0  0
    1.0311   -0.6034    0.0000 C   0  0  0  0  0  0  0  0  0  0  0  0
    0.5898   -2.0371    0.0000 O   0  0  0  0  0  0  0  0  0  0  0  0
    2.4933   -0.2688    0.0000 C   0  0  0  0  0  0  0  0  0  0  0  0
    2.9346    1.1648    0.0000 C   0  0  0  0  0  0  0  0  0  0  0  0
    4.3968    1.4995    0.0000 C   0  0  0  0  0  0  0  0  0  0  0  0
    5.4177    0.4005    0.0000 C   0  0  0  0  0  0  0  0  0  0  0  0
    6.9175    0.4238    0.0000 N   0  0  0  0  0  0  0  0  0  0  0  0
    7.4032   -0.9954    0.0000 C   0  0  0  0  0  0  0  0  0  0  0  0
    6.2035   -1.8958    0.0000 N   0  0  0  0  0  0  0  0  0  0  0  0
    4.9764   -1.0331    0.0000 C   0  0  0  0  0  0  0  0  0  0  0  0
    3.5142   -1.3678    0.0000 C   0  0  0  0  0  0  0  0  0  0  0  0
  1  2  1  0
  2  3  2  0
  2 14  1  0
  3  4  1  0
  4  5  2  0
  5  6  1  0
  5 13  1  0
  6  7  1  0
  6 11  1  0
  7  8  1  0
  8  9  1  0
  9 10  1  0
 10 11  1  0
 10 15  1  0
 11 12  1  0
 12 13  1  0
 13 14  2  0
 15 16  2  0
 15 17  1  0
 17 18  2  0
 17 25  1  0
 18 19  1  0
 19 20  2  0
 20 21  1  0
 20 24  1  0
 21 22  1  0
 22 23  2  0
 23 24  1  0
 24 25  2  0
M  END
>  <s_m_entry_id>  (528) 
1275

>  <s_m_entry_name>  (528) 
3C-like_protease_GHDDI_ligprep.894

>  <s_m_Source_Path>  (528) 
/home/jgilaber/drug_learning/drug_learning/datasets/SAR1/GHDDI

>  <s_m_Source_File>  (528) 
3C-like_protease_GHDDI_ligprep.sdf

>  <i_m_Source_File_Index>  (528) 
894

>  <s_m_subgroup_title>  (528) 
3C-like_protease_GHDDI_ligprep

>  <s_m_subgroupid>  (528) 
3C-like_protease_GHDDI_ligprep

>  <b_m_subgroup_collapsed>  (528) 
0

$$$$
14088
     RDKit          2D

 22 24  0  0  1  0  0  0  0  0999 V2000
    5.4098   -1.8053    0.0000 C   0  0  0  0  0  0  0  0  0  0  0  0
    4.8488   -0.4141    0.0000 C   0  0  0  0  0  0  0  0  0  0  0  0
    5.7730    0.7673    0.0000 C   0  0  0  0  0  0  0  0  0  0  0  0
    3.3635   -0.2045    0.0000 C   0  0  0  0  0  0  0  0  0  0  0  0
    2.4393   -1.3860    0.0000 C   0  0  0  0  0  0  0  0  0  0  0  0
    0.9540   -1.1763    0.0000 C   0  0  0  0  0  0  0  0  0  0  0  0
    0.0298   -2.3578    0.0000 C   0  0  0  0  0  0  0  0  0  0  0  0
   -1.4555   -2.1481    0.0000 C   0  0  0  0  0  0  0  0  0  0  0  0
   -2.0165   -0.7570    0.0000 C   0  0  0  0  0  0  0  0  0  0  0  0
   -3.5018   -0.5474    0.0000 C   0  0  0  0  0  0  0  0  0  0  0  0
   -4.9692   -0.8584    0.0000 C   0  0  0  0  0  0  0  0  0  0  0  0
   -3.4504   -2.0465    0.0000 C   0  0  0  0  0  0  0  0  0  0  0  0
   -4.0629    0.8437    0.0000 C   0  0  0  0  0  0  0  0  0  0  0  0
   -5.5482    1.0534    0.0000 O   0  0  0  0  0  0  0  0  0  0  0  0
   -3.1387    2.0252    0.0000 C   0  0  0  0  0  0  0  0  0  0  0  0
   -1.6534    1.8156    0.0000 C   0  0  0  0  0  0  0  0  0  0  0  0
   -1.0924    0.4244    0.0000 C   0  0  0  0  0  0  0  0  0  0  0  0
   -0.1682    1.6059    0.0000 C   0  0  0  0  0  0  0  0  0  0  0  0
    0.3929    0.2148    0.0000 C   0  0  0  0  0  0  0  0  0  0  0  0
    1.3171    1.3963    0.0000 C   0  0  0  0  0  0  0  0  0  0  0  0
    2.8024    1.1866    0.0000 C   0  0  0  0  0  0  0  0  0  0  0  0
    3.7266    2.3681    0.0000 O   0  0  0  0  0  0  0  0  0  0  0  0
  1  2  1  0
  2  3  1  0
  2  4  1  0
  4  5  2  0
  4 21  1  0
  5  6  1  0
  6  7  1  0
  6 19  2  0
  7  8  1  0
  8  9  1  0
  9 10  1  0
  9 17  1  0
 10 11  1  0
 10 12  1  0
 10 13  1  0
 13 14  1  0
 13 15  1  0
 15 16  1  0
 16 17  1  0
 17 18  1  0
 17 19  1  0
 19 20  1  0
 20 21  2  0
 21 22  1  0
M  END
>  <s_m_entry_id>  (529) 
1277

>  <s_m_entry_name>  (529) 
3C-like_protease_GHDDI_ligprep.896

>  <s_m_Source_Path>  (529) 
/home/jgilaber/drug_learning/drug_learning/datasets/SAR1/GHDDI

>  <s_m_Source_File>  (529) 
3C-like_protease_GHDDI_ligprep.sdf

>  <i_m_Source_File_Index>  (529) 
896

>  <s_m_subgroup_title>  (529) 
3C-like_protease_GHDDI_ligprep

>  <s_m_subgroupid>  (529) 
3C-like_protease_GHDDI_ligprep

>  <b_m_subgroup_collapsed>  (529) 
0

$$$$
14089
     RDKit          2D

 31 33  0  0  1  0  0  0  0  0999 V2000
   -2.2016   -0.6823    0.0000 O   0  0  0  0  0  0  0  0  0  0  0  0
   -1.1713    0.4079    0.0000 C   0  0  0  0  0  0  0  0  0  0  0  0
    0.2880    0.0607    0.0000 N   0  0  0  0  0  0  0  0  0  0  0  0
    0.7170   -1.3766    0.0000 C   0  0  0  0  0  0  0  0  0  0  0  0
    2.1762   -1.7238    0.0000 C   0  0  0  0  0  0  0  0  0  0  0  0
    3.2065   -0.6336    0.0000 O   0  0  0  0  0  0  0  0  0  0  0  0
    4.6658   -0.9808    0.0000 C   0  0  0  0  0  0  0  0  0  0  0  0
    5.0948   -2.4182    0.0000 O   0  0  0  0  0  0  0  0  0  0  0  0
    5.6961    0.1094    0.0000 C   0  0  0  0  0  0  0  0  0  0  0  0
    7.1554   -0.2378    0.0000 C   0  0  0  0  0  0  0  0  0  0  0  0
    8.1857    0.8524    0.0000 C   0  0  0  0  0  0  0  0  0  0  0  0
    7.7567    2.2897    0.0000 C   0  0  0  0  0  0  0  0  0  0  0  0
    6.2974    2.6369    0.0000 N   0  0  0  0  0  0  0  0  0  0  0  0
    5.2671    1.5467    0.0000 C   0  0  0  0  0  0  0  0  0  0  0  0
   -0.3133   -2.4668    0.0000 C   0  0  0  0  0  0  0  0  0  0  0  0
    0.1156   -3.9042    0.0000 O   0  0  0  0  0  0  0  0  0  0  0  0
   -1.7726   -2.1197    0.0000 N   0  0  0  0  0  0  0  0  0  0  0  0
   -2.8029   -3.2098    0.0000 C   0  0  0  0  0  0  0  0  0  0  0  0
   -4.2622   -2.8627    0.0000 C   0  0  0  0  0  0  0  0  0  0  0  0
   -5.2925   -3.9528    0.0000 C   0  0  0  0  0  0  0  0  0  0  0  0
   -4.8635   -5.3902    0.0000 C   0  0  0  0  0  0  0  0  0  0  0  0
   -3.4042   -5.7374    0.0000 C   0  0  0  0  0  0  0  0  0  0  0  0
   -2.3739   -4.6472    0.0000 C   0  0  0  0  0  0  0  0  0  0  0  0
   -1.6002    1.8452    0.0000 C   0  0  0  0  0  0  0  0  0  0  0  0
   -3.0595    2.1924    0.0000 C   0  0  0  0  0  0  0  0  0  0  0  0
   -3.4885    3.6298    0.0000 C   0  0  0  0  0  0  0  0  0  0  0  0
   -2.4582    4.7199    0.0000 C   0  0  0  0  0  0  0  0  0  0  0  0
   -2.8872    6.1573    0.0000 C   0  0  0  0  0  0  0  0  0  0  0  0
   -4.3464    6.5045    0.0000 C   0  0  0  0  0  0  0  0  0  0  0  0
   -5.3767    5.4143    0.0000 C   0  0  0  0  0  0  0  0  0  0  0  0
   -4.9478    3.9769    0.0000 C   0  0  0  0  0  0  0  0  0  0  0  0
  1  2  2  0
  2  3  1  0
  2 24  1  0
  3  4  1  0
  4  5  1  0
  4 15  1  0
  5  6  1  0
  6  7  1  0
  7  8  2  0
  7  9  1  0
  9 10  2  0
  9 14  1  0
 10 11  1  0
 11 12  2  0
 12 13  1  0
 13 14  2  0
 15 16  2  0
 15 17  1  0
 17 18  1  0
 18 19  1  0
 18 23  1  0
 19 20  1  0
 20 21  1  0
 21 22  1  0
 22 23  1  0
 24 25  2  0
 25 26  1  0
 26 27  2  0
 26 31  1  0
 27 28  1  0
 28 29  2  0
 29 30  1  0
 30 31  2  0
M  END
>  <s_m_entry_id>  (530) 
1279

>  <s_m_entry_name>  (530) 
3C-like_protease_GHDDI_ligprep.898

>  <s_m_Source_Path>  (530) 
/home/jgilaber/drug_learning/drug_learning/datasets/SAR1/GHDDI

>  <s_m_Source_File>  (530) 
3C-like_protease_GHDDI_ligprep.sdf

>  <i_m_Source_File_Index>  (530) 
898

>  <s_m_subgroup_title>  (530) 
3C-like_protease_GHDDI_ligprep

>  <s_m_subgroupid>  (530) 
3C-like_protease_GHDDI_ligprep

>  <b_m_subgroup_collapsed>  (530) 
0

$$$$
14091
     RDKit          2D

 33 35  0  0  1  0  0  0  0  0999 V2000
  -11.3014   -0.1993    0.0000 C   0  0  0  0  0  0  0  0  0  0  0  0
  -10.2272   -1.2462    0.0000 O   0  0  0  0  0  0  0  0  0  0  0  0
   -8.7834   -0.8394    0.0000 C   0  0  0  0  0  0  0  0  0  0  0  0
   -8.4139    0.6144    0.0000 C   0  0  0  0  0  0  0  0  0  0  0  0
   -6.9702    1.0213    0.0000 C   0  0  0  0  0  0  0  0  0  0  0  0
   -5.8959   -0.0256    0.0000 C   0  0  0  0  0  0  0  0  0  0  0  0
   -4.4521    0.3813    0.0000 C   0  0  0  0  0  0  0  0  0  0  0  0
   -3.3779   -0.6656    0.0000 C   0  0  0  0  0  0  0  0  0  0  0  0
   -1.9341   -0.2588    0.0000 C   0  0  0  0  0  0  0  0  0  0  0  0
   -1.5646    1.1950    0.0000 O   0  0  0  0  0  0  0  0  0  0  0  0
   -0.8599   -1.3057    0.0000 N   0  0  0  0  0  0  0  0  0  0  0  0
    0.5839   -0.8988    0.0000 C   0  0  0  0  0  0  0  0  0  0  0  0
    1.6581   -1.9457    0.0000 C   0  0  0  0  0  0  0  0  0  0  0  0
    3.1019   -1.5388    0.0000 O   0  0  0  0  0  0  0  0  0  0  0  0
    4.1761   -2.5857    0.0000 C   0  0  0  0  0  0  0  0  0  0  0  0
    3.8066   -4.0395    0.0000 O   0  0  0  0  0  0  0  0  0  0  0  0
    5.6199   -2.1789    0.0000 C   0  0  0  0  0  0  0  0  0  0  0  0
    6.6941   -3.2258    0.0000 C   0  0  0  0  0  0  0  0  0  0  0  0
    8.1379   -2.8189    0.0000 C   0  0  0  0  0  0  0  0  0  0  0  0
    8.5074   -1.3651    0.0000 C   0  0  0  0  0  0  0  0  0  0  0  0
    7.4332   -0.3182    0.0000 C   0  0  0  0  0  0  0  0  0  0  0  0
    5.9894   -0.7251    0.0000 C   0  0  0  0  0  0  0  0  0  0  0  0
    0.9534    0.5550    0.0000 C   0  0  0  0  0  0  0  0  0  0  0  0
   -0.1208    1.6019    0.0000 O   0  0  0  0  0  0  0  0  0  0  0  0
    2.3972    0.9618    0.0000 N   0  0  0  0  0  0  0  0  0  0  0  0
    2.7667    2.4156    0.0000 C   0  0  0  0  0  0  0  0  0  0  0  0
    4.2104    2.8225    0.0000 C   0  0  0  0  0  0  0  0  0  0  0  0
    4.5800    4.2762    0.0000 C   0  0  0  0  0  0  0  0  0  0  0  0
    3.5057    5.3231    0.0000 C   0  0  0  0  0  0  0  0  0  0  0  0
    2.0620    4.9163    0.0000 C   0  0  0  0  0  0  0  0  0  0  0  0
    1.6924    3.4625    0.0000 C   0  0  0  0  0  0  0  0  0  0  0  0
   -6.2654   -1.4794    0.0000 C   0  0  0  0  0  0  0  0  0  0  0  0
   -7.7092   -1.8863    0.0000 C   0  0  0  0  0  0  0  0  0  0  0  0
  1  2  1  0
  2  3  1  0
  3  4  2  0
  3 33  1  0
  4  5  1  0
  5  6  2  0
  6  7  1  0
  6 32  1  0
  7  8  2  0
  8  9  1  0
  9 10  2  0
  9 11  1  0
 11 12  1  0
 12 13  1  0
 12 23  1  0
 13 14  1  0
 14 15  1  0
 15 16  2  0
 15 17  1  0
 17 18  2  0
 17 22  1  0
 18 19  1  0
 19 20  2  0
 20 21  1  0
 21 22  2  0
 23 24  2  0
 23 25  1  0
 25 26  1  0
 26 27  1  0
 26 31  1  0
 27 28  1  0
 28 29  1  0
 29 30  1  0
 30 31  1  0
 32 33  2  0
M  END
>  <s_m_entry_id>  (531) 
1281

>  <s_m_entry_name>  (531) 
3C-like_protease_GHDDI_ligprep.900

>  <s_m_Source_Path>  (531) 
/home/jgilaber/drug_learning/drug_learning/datasets/SAR1/GHDDI

>  <s_m_Source_File>  (531) 
3C-like_protease_GHDDI_ligprep.sdf

>  <i_m_Source_File_Index>  (531) 
900

>  <s_m_subgroup_title>  (531) 
3C-like_protease_GHDDI_ligprep

>  <s_m_subgroupid>  (531) 
3C-like_protease_GHDDI_ligprep

>  <b_m_subgroup_collapsed>  (531) 
0

$$$$
14092
     RDKit          2D

 31 33  0  0  1  0  0  0  0  0999 V2000
   -2.2016   -0.6823    0.0000 O   0  0  0  0  0  0  0  0  0  0  0  0
   -1.1713    0.4079    0.0000 C   0  0  0  0  0  0  0  0  0  0  0  0
    0.2880    0.0607    0.0000 N   0  0  0  0  0  0  0  0  0  0  0  0
    0.7170   -1.3766    0.0000 C   0  0  0  0  0  0  0  0  0  0  0  0
    2.1762   -1.7238    0.0000 C   0  0  0  0  0  0  0  0  0  0  0  0
    3.2065   -0.6336    0.0000 O   0  0  0  0  0  0  0  0  0  0  0  0
    4.6658   -0.9808    0.0000 C   0  0  0  0  0  0  0  0  0  0  0  0
    5.0948   -2.4182    0.0000 O   0  0  0  0  0  0  0  0  0  0  0  0
    5.6961    0.1094    0.0000 C   0  0  0  0  0  0  0  0  0  0  0  0
    7.1554   -0.2378    0.0000 C   0  0  0  0  0  0  0  0  0  0  0  0
    8.1857    0.8524    0.0000 C   0  0  0  0  0  0  0  0  0  0  0  0
    7.7567    2.2897    0.0000 C   0  0  0  0  0  0  0  0  0  0  0  0
    6.2974    2.6369    0.0000 N   0  0  0  0  0  0  0  0  0  0  0  0
    5.2671    1.5467    0.0000 C   0  0  0  0  0  0  0  0  0  0  0  0
   -0.3133   -2.4668    0.0000 C   0  0  0  0  0  0  0  0  0  0  0  0
    0.1156   -3.9042    0.0000 O   0  0  0  0  0  0  0  0  0  0  0  0
   -1.7726   -2.1197    0.0000 N   0  0  0  0  0  0  0  0  0  0  0  0
   -2.8029   -3.2098    0.0000 C   0  0  0  0  0  0  0  0  0  0  0  0
   -4.2622   -2.8627    0.0000 C   0  0  0  0  0  0  0  0  0  0  0  0
   -5.2925   -3.9528    0.0000 C   0  0  0  0  0  0  0  0  0  0  0  0
   -4.8635   -5.3902    0.0000 C   0  0  0  0  0  0  0  0  0  0  0  0
   -3.4042   -5.7374    0.0000 C   0  0  0  0  0  0  0  0  0  0  0  0
   -2.3739   -4.6472    0.0000 C   0  0  0  0  0  0  0  0  0  0  0  0
   -1.6002    1.8452    0.0000 C   0  0  0  0  0  0  0  0  0  0  0  0
   -3.0595    2.1924    0.0000 C   0  0  0  0  0  0  0  0  0  0  0  0
   -3.4885    3.6298    0.0000 C   0  0  0  0  0  0  0  0  0  0  0  0
   -2.4582    4.7199    0.0000 C   0  0  0  0  0  0  0  0  0  0  0  0
   -2.8872    6.1573    0.0000 C   0  0  0  0  0  0  0  0  0  0  0  0
   -4.3464    6.5045    0.0000 C   0  0  0  0  0  0  0  0  0  0  0  0
   -5.3767    5.4143    0.0000 C   0  0  0  0  0  0  0  0  0  0  0  0
   -4.9478    3.9769    0.0000 C   0  0  0  0  0  0  0  0  0  0  0  0
  1  2  2  0
  2  3  1  0
  2 24  1  0
  3  4  1  0
  4  5  1  0
  4 15  1  0
  5  6  1  0
  6  7  1  0
  7  8  2  0
  7  9  1  0
  9 10  2  0
  9 14  1  0
 10 11  1  0
 11 12  2  0
 12 13  1  0
 13 14  2  0
 15 16  2  0
 15 17  1  0
 17 18  1  0
 18 19  1  0
 18 23  1  0
 19 20  1  0
 20 21  1  0
 21 22  1  0
 22 23  1  0
 24 25  2  0
 25 26  1  0
 26 27  2  0
 26 31  1  0
 27 28  1  0
 28 29  2  0
 29 30  1  0
 30 31  2  0
M  END
>  <s_m_entry_id>  (532) 
1282

>  <s_m_entry_name>  (532) 
3C-like_protease_GHDDI_ligprep.901

>  <s_m_Source_Path>  (532) 
/home/jgilaber/drug_learning/drug_learning/datasets/SAR1/GHDDI

>  <s_m_Source_File>  (532) 
3C-like_protease_GHDDI_ligprep.sdf

>  <i_m_Source_File_Index>  (532) 
901

>  <s_m_subgroup_title>  (532) 
3C-like_protease_GHDDI_ligprep

>  <s_m_subgroupid>  (532) 
3C-like_protease_GHDDI_ligprep

>  <b_m_subgroup_collapsed>  (532) 
0

$$$$
14093
     RDKit          2D

 35 39  0  0  1  0  0  0  0  0999 V2000
   -5.4429   -1.3951    0.0000 O   0  0  0  0  0  0  0  0  0  0  0  0
   -5.3407    0.1015    0.0000 C   0  0  0  0  0  0  0  0  0  0  0  0
   -3.9936    0.7612    0.0000 C   0  0  0  0  0  0  0  0  0  0  0  0
   -3.8914    2.2577    0.0000 C   0  0  0  0  0  0  0  0  0  0  0  0
   -5.1364    3.0945    0.0000 C   0  0  0  0  0  0  0  0  0  0  0  0
   -6.5451    2.5791    0.0000 C   0  0  0  0  0  0  0  0  0  0  0  0
   -7.4705    3.7596    0.0000 N   0  0  0  0  0  0  0  0  0  0  0  0
   -6.6337    5.0046    0.0000 C   0  0  0  0  0  0  0  0  0  0  0  0
   -5.1912    4.5935    0.0000 N   0  0  0  0  0  0  0  0  0  0  0  0
   -2.7487   -0.0755    0.0000 N   0  0  0  0  0  0  0  0  0  0  0  0
   -2.8508   -1.5720    0.0000 C   0  0  0  0  0  0  0  0  0  0  0  0
   -1.6059   -2.4088    0.0000 C   0  0  0  0  0  0  0  0  0  0  0  0
   -1.7081   -3.9053    0.0000 C   0  0  0  0  0  0  0  0  0  0  0  0
   -0.4631   -4.7420    0.0000 C   0  0  0  0  0  0  0  0  0  0  0  0
   -0.5653   -6.2386    0.0000 C   0  0  0  0  0  0  0  0  0  0  0  0
    0.6796   -7.0753    0.0000 C   0  0  0  0  0  0  0  0  0  0  0  0
    2.0267   -6.4155    0.0000 C   0  0  0  0  0  0  0  0  0  0  0  0
    2.1289   -4.9190    0.0000 C   0  0  0  0  0  0  0  0  0  0  0  0
    0.8840   -4.0823    0.0000 C   0  0  0  0  0  0  0  0  0  0  0  0
    0.9861   -2.5857    0.0000 C   0  0  0  0  0  0  0  0  0  0  0  0
   -0.2588   -1.7490    0.0000 N   0  0  0  0  0  0  0  0  0  0  0  0
   -0.1566   -0.2525    0.0000 C   0  0  0  0  0  0  0  0  0  0  0  0
   -1.4016    0.5843    0.0000 O   0  0  0  0  0  0  0  0  0  0  0  0
    1.1905    0.4073    0.0000 C   0  0  0  0  0  0  0  0  0  0  0  0
    2.4354   -0.4295    0.0000 C   0  0  0  0  0  0  0  0  0  0  0  0
    3.7825    0.2303    0.0000 C   0  0  0  0  0  0  0  0  0  0  0  0
    3.8847    1.7268    0.0000 C   0  0  0  0  0  0  0  0  0  0  0  0
    2.6398    2.5636    0.0000 C   0  0  0  0  0  0  0  0  0  0  0  0
    1.2927    1.9038    0.0000 C   0  0  0  0  0  0  0  0  0  0  0  0
    5.2318    2.3866    0.0000 C   0  0  0  0  0  0  0  0  0  0  0  0
    6.4767    1.5499    0.0000 C   0  0  0  0  0  0  0  0  0  0  0  0
    7.8239    2.2096    0.0000 C   0  0  0  0  0  0  0  0  0  0  0  0
    7.9260    3.7061    0.0000 C   0  0  0  0  0  0  0  0  0  0  0  0
    6.6811    4.5429    0.0000 C   0  0  0  0  0  0  0  0  0  0  0  0
    5.3340    3.8831    0.0000 C   0  0  0  0  0  0  0  0  0  0  0  0
  1  2  1  0
  2  3  2  0
  3  4  1  0
  3 10  1  0
  4  5  1  0
  5  6  2  0
  5  9  1  0
  6  7  1  0
  7  8  1  0
  8  9  2  0
 10 11  1  0
 11 12  1  0
 12 13  1  0
 12 21  1  0
 13 14  1  0
 14 15  1  0
 14 19  1  0
 15 16  1  0
 16 17  1  0
 17 18  1  0
 18 19  1  0
 19 20  1  0
 20 21  1  0
 21 22  1  0
 22 23  2  0
 22 24  1  0
 24 25  2  0
 24 29  1  0
 25 26  1  0
 26 27  2  0
 27 28  1  0
 27 30  1  0
 28 29  2  0
 30 31  2  0
 30 35  1  0
 31 32  1  0
 32 33  2  0
 33 34  1  0
 34 35  2  0
M  CHG  2   1  -1  10   1
M  END
>  <s_m_entry_id>  (533) 
1284

>  <s_m_entry_name>  (533) 
3C-like_protease_GHDDI_ligprep.903

>  <s_m_Source_Path>  (533) 
/home/jgilaber/drug_learning/drug_learning/datasets/SAR1/GHDDI

>  <s_m_Source_File>  (533) 
3C-like_protease_GHDDI_ligprep.sdf

>  <i_m_Source_File_Index>  (533) 
903

>  <s_m_subgroup_title>  (533) 
3C-like_protease_GHDDI_ligprep

>  <s_m_subgroupid>  (533) 
3C-like_protease_GHDDI_ligprep

>  <b_m_subgroup_collapsed>  (533) 
0

$$$$
14095
     RDKit          2D

 37 39  0  0  1  0  0  0  0  0999 V2000
    8.5164   -2.5458    0.0000 O   0  0  0  0  0  0  0  0  0  0  0  0
    8.2921   -1.0627    0.0000 N   0  0  0  0  0  0  0  0  0  0  0  0
    9.4644   -0.1269    0.0000 O   0  0  0  0  0  0  0  0  0  0  0  0
    6.8955   -0.5153    0.0000 C   0  0  0  0  0  0  0  0  0  0  0  0
    5.7232   -1.4511    0.0000 C   0  0  0  0  0  0  0  0  0  0  0  0
    4.3266   -0.9038    0.0000 C   0  0  0  0  0  0  0  0  0  0  0  0
    4.1024    0.5793    0.0000 C   0  0  0  0  0  0  0  0  0  0  0  0
    5.2747    1.5151    0.0000 C   0  0  0  0  0  0  0  0  0  0  0  0
    6.6712    0.9678    0.0000 C   0  0  0  0  0  0  0  0  0  0  0  0
    5.0504    2.9983    0.0000 N   0  0  0  0  0  0  0  0  0  0  0  0
    3.6538    3.5456    0.0000 O   0  0  0  0  0  0  0  0  0  0  0  0
    6.2227    3.9341    0.0000 O   0  0  0  0  0  0  0  0  0  0  0  0
    3.1543   -1.8396    0.0000 C   0  0  0  0  0  0  0  0  0  0  0  0
    3.3786   -3.3227    0.0000 O   0  0  0  0  0  0  0  0  0  0  0  0
    1.7578   -1.2922    0.0000 O   0  0  0  0  0  0  0  0  0  0  0  0
    0.5855   -2.2280    0.0000 C   0  0  0  0  0  0  0  0  0  0  0  0
   -0.8111   -1.6807    0.0000 C   0  0  0  0  0  0  0  0  0  0  0  0
   -1.0354   -0.1976    0.0000 N   0  0  0  0  0  0  0  0  0  0  0  0
   -2.4319    0.3498    0.0000 C   0  0  0  0  0  0  0  0  0  0  0  0
   -3.6042   -0.5860    0.0000 O   0  0  0  0  0  0  0  0  0  0  0  0
   -2.6562    1.8329    0.0000 C   0  0  0  0  0  0  0  0  0  0  0  0
   -4.0528    2.3803    0.0000 C   0  0  0  0  0  0  0  0  0  0  0  0
   -4.2771    3.8634    0.0000 C   0  0  0  0  0  0  0  0  0  0  0  0
   -3.1048    4.7992    0.0000 C   0  0  0  0  0  0  0  0  0  0  0  0
   -3.3291    6.2823    0.0000 C   0  0  0  0  0  0  0  0  0  0  0  0
   -4.7256    6.8297    0.0000 C   0  0  0  0  0  0  0  0  0  0  0  0
   -5.8979    5.8939    0.0000 C   0  0  0  0  0  0  0  0  0  0  0  0
   -5.6736    4.4107    0.0000 C   0  0  0  0  0  0  0  0  0  0  0  0
   -1.9834   -2.6165    0.0000 C   0  0  0  0  0  0  0  0  0  0  0  0
   -1.7591   -4.0996    0.0000 O   0  0  0  0  0  0  0  0  0  0  0  0
   -3.3800   -2.0692    0.0000 N   0  0  0  0  0  0  0  0  0  0  0  0
   -4.5523   -3.0050    0.0000 C   0  0  0  0  0  0  0  0  0  0  0  0
   -5.9488   -2.4576    0.0000 C   0  0  0  0  0  0  0  0  0  0  0  0
   -7.1211   -3.3934    0.0000 C   0  0  0  0  0  0  0  0  0  0  0  0
   -6.8969   -4.8766    0.0000 C   0  0  0  0  0  0  0  0  0  0  0  0
   -5.5003   -5.4239    0.0000 C   0  0  0  0  0  0  0  0  0  0  0  0
   -4.3280   -4.4881    0.0000 C   0  0  0  0  0  0  0  0  0  0  0  0
  1  2  1  0
  2  3  2  0
  2  4  1  0
  4  5  2  0
  4  9  1  0
  5  6  1  0
  6  7  2  0
  6 13  1  0
  7  8  1  0
  8  9  2  0
  8 10  1  0
 10 11  2  0
 10 12  1  0
 13 14  2  0
 13 15  1  0
 15 16  1  0
 16 17  1  0
 17 18  1  0
 17 29  1  0
 18 19  1  0
 19 20  2  0
 19 21  1  0
 21 22  2  0
 22 23  1  0
 23 24  2  0
 23 28  1  0
 24 25  1  0
 25 26  2  0
 26 27  1  0
 27 28  2  0
 29 30  2  0
 29 31  1  0
 31 32  1  0
 32 33  1  0
 32 37  1  0
 33 34  1  0
 34 35  1  0
 35 36  1  0
 36 37  1  0
M  CHG  4   1  -1   2   1  10   1  12  -1
M  END
>  <s_m_entry_id>  (534) 
1288

>  <s_m_entry_name>  (534) 
3C-like_protease_GHDDI_ligprep.907

>  <s_m_Source_Path>  (534) 
/home/jgilaber/drug_learning/drug_learning/datasets/SAR1/GHDDI

>  <s_m_Source_File>  (534) 
3C-like_protease_GHDDI_ligprep.sdf

>  <i_m_Source_File_Index>  (534) 
907

>  <s_m_subgroup_title>  (534) 
3C-like_protease_GHDDI_ligprep

>  <s_m_subgroupid>  (534) 
3C-like_protease_GHDDI_ligprep

>  <b_m_subgroup_collapsed>  (534) 
0

$$$$
14098
     RDKit          2D

 30 32  0  0  1  0  0  0  0  0999 V2000
   -0.1169   -2.3626    0.0000 O   0  0  0  0  0  0  0  0  0  0  0  0
   -1.5816   -2.6860    0.0000 C   0  0  0  0  0  0  0  0  0  0  0  0
   -2.0339   -4.1162    0.0000 O   0  0  0  0  0  0  0  0  0  0  0  0
   -2.5941   -1.5792    0.0000 C   0  0  0  0  0  0  0  0  0  0  0  0
   -4.0588   -1.9027    0.0000 C   0  0  0  0  0  0  0  0  0  0  0  0
   -5.0712   -0.7959    0.0000 C   0  0  0  0  0  0  0  0  0  0  0  0
   -6.5359   -1.1193    0.0000 C   0  0  0  0  0  0  0  0  0  0  0  0
   -7.5484   -0.0126    0.0000 C   0  0  0  0  0  0  0  0  0  0  0  0
   -7.0962    1.4176    0.0000 N   0  0  0  0  0  0  0  0  0  0  0  0
   -5.6314    1.7411    0.0000 C   0  0  0  0  0  0  0  0  0  0  0  0
   -4.6190    0.6343    0.0000 C   0  0  0  0  0  0  0  0  0  0  0  0
   -2.1418   -0.1490    0.0000 N   0  0  0  0  0  0  0  0  0  0  0  0
   -0.6771    0.1744    0.0000 C   0  0  0  0  0  0  0  0  0  0  0  0
    0.3354   -0.9324    0.0000 O   0  0  0  0  0  0  0  0  0  0  0  0
   -0.2248    1.6046    0.0000 C   0  0  0  0  0  0  0  0  0  0  0  0
   -1.1161    2.8111    0.0000 C   0  0  0  0  0  0  0  0  0  0  0  0
   -0.2440    4.0316    0.0000 C   0  0  0  0  0  0  0  0  0  0  0  0
    1.1862    3.5793    0.0000 C   0  0  0  0  0  0  0  0  0  0  0  0
    1.1981    2.0794    0.0000 N   0  0  0  0  0  0  0  0  0  0  0  0
    2.4185    1.2073    0.0000 S   0  0  0  0  0  0  0  0  0  0  0  0
    1.5464   -0.0132    0.0000 O   0  0  0  0  0  0  0  0  0  0  0  0
    3.2906    2.4277    0.0000 O   0  0  0  0  0  0  0  0  0  0  0  0
    3.6389    0.3352    0.0000 C   0  0  0  0  0  0  0  0  0  0  0  0
    5.0044    0.9561    0.0000 C   0  0  0  0  0  0  0  0  0  0  0  0
    6.2248    0.0840    0.0000 C   0  0  0  0  0  0  0  0  0  0  0  0
    7.5903    0.7049    0.0000 Cl  0  0  0  0  0  0  0  0  0  0  0  0
    6.0798   -1.4090    0.0000 C   0  0  0  0  0  0  0  0  0  0  0  0
    4.7144   -2.0299    0.0000 C   0  0  0  0  0  0  0  0  0  0  0  0
    4.5693   -3.5228    0.0000 Cl  0  0  0  0  0  0  0  0  0  0  0  0
    3.4939   -1.1578    0.0000 C   0  0  0  0  0  0  0  0  0  0  0  0
  1  2  1  0
  2  3  2  0
  2  4  1  0
  4  5  1  0
  4 12  1  0
  5  6  1  0
  6  7  2  0
  6 11  1  0
  7  8  1  0
  8  9  2  0
  9 10  1  0
 10 11  2  0
 12 13  1  0
 13 14  2  0
 13 15  1  0
 15 16  1  0
 15 19  1  0
 16 17  1  0
 17 18  1  0
 18 19  1  0
 19 20  1  0
 20 21  2  0
 20 22  2  0
 20 23  1  0
 23 24  2  0
 23 30  1  0
 24 25  1  0
 25 26  1  0
 25 27  2  0
 27 28  1  0
 28 29  1  0
 28 30  2  0
M  CHG  1   1  -1
M  END
>  <s_m_entry_id>  (535) 
1293

>  <s_m_entry_name>  (535) 
3C-like_protease_GHDDI_ligprep.912

>  <s_m_Source_Path>  (535) 
/home/jgilaber/drug_learning/drug_learning/datasets/SAR1/GHDDI

>  <s_m_Source_File>  (535) 
3C-like_protease_GHDDI_ligprep.sdf

>  <i_m_Source_File_Index>  (535) 
912

>  <s_m_subgroup_title>  (535) 
3C-like_protease_GHDDI_ligprep

>  <s_m_subgroupid>  (535) 
3C-like_protease_GHDDI_ligprep

>  <b_m_subgroup_collapsed>  (535) 
0

$$$$
14099
     RDKit          2D

 22 24  0  0  1  0  0  0  0  0999 V2000
   -4.7582   -1.7146    0.0000 C   0  0  0  0  0  0  0  0  0  0  0  0
   -3.8792   -0.4991    0.0000 C   0  0  0  0  0  0  0  0  0  0  0  0
   -3.4689    0.9437    0.0000 C   0  0  0  0  0  0  0  0  0  0  0  0
   -2.0143    1.3098    0.0000 C   0  0  0  0  0  0  0  0  0  0  0  0
   -0.9699    0.2331    0.0000 C   0  0  0  0  0  0  0  0  0  0  0  0
   -1.3802   -1.2097    0.0000 C   0  0  0  0  0  0  0  0  0  0  0  0
   -0.3358   -2.2864    0.0000 C   0  0  0  0  0  0  0  0  0  0  0  0
    1.1188   -1.9203    0.0000 C   0  0  0  0  0  0  0  0  0  0  0  0
    1.5291   -0.4775    0.0000 C   0  0  0  0  0  0  0  0  0  0  0  0
    0.4847    0.5992    0.0000 C   0  0  0  0  0  0  0  0  0  0  0  0
   -0.5596    1.6759    0.0000 C   0  0  0  0  0  0  0  0  0  0  0  0
    0.8950    2.0420    0.0000 C   0  0  0  0  0  0  0  0  0  0  0  0
    2.3496    2.4081    0.0000 C   0  0  0  0  0  0  0  0  0  0  0  0
    3.3940    1.3314    0.0000 C   0  0  0  0  0  0  0  0  0  0  0  0
    2.9837   -0.1114    0.0000 C   0  0  0  0  0  0  0  0  0  0  0  0
    3.0917   -1.6075    0.0000 C   0  0  0  0  0  0  0  0  0  0  0  0
    4.4759   -0.2649    0.0000 C   0  0  0  0  0  0  0  0  0  0  0  0
    5.3549    0.9506    0.0000 O   0  0  0  0  0  0  0  0  0  0  0  0
    5.0890   -1.6338    0.0000 O   0  0  0  0  0  0  0  0  0  0  0  0
   -2.8348   -1.5758    0.0000 C   0  0  0  0  0  0  0  0  0  0  0  0
   -5.2288    0.1555    0.0000 C   0  0  0  0  0  0  0  0  0  0  0  0
   -5.3368    1.6516    0.0000 C   0  0  0  0  0  0  0  0  0  0  0  0
  1  2  1  0
  2  3  1  0
  2 20  1  0
  2 21  1  0
  3  4  1  0
  4  5  1  0
  5  6  1  0
  5 10  1  0
  6  7  2  0
  6 20  1  0
  7  8  1  0
  8  9  1  0
  9 10  1  0
  9 15  1  0
 10 11  1  0
 10 12  1  0
 12 13  1  0
 13 14  1  0
 14 15  1  0
 15 16  1  0
 15 17  1  0
 17 18  2  0
 17 19  1  0
 21 22  2  0
M  CHG  1  19  -1
M  END
>  <s_m_entry_id>  (536) 
1295

>  <s_m_entry_name>  (536) 
3C-like_protease_GHDDI_ligprep.914

>  <s_m_Source_Path>  (536) 
/home/jgilaber/drug_learning/drug_learning/datasets/SAR1/GHDDI

>  <s_m_Source_File>  (536) 
3C-like_protease_GHDDI_ligprep.sdf

>  <i_m_Source_File_Index>  (536) 
914

>  <s_m_subgroup_title>  (536) 
3C-like_protease_GHDDI_ligprep

>  <s_m_subgroupid>  (536) 
3C-like_protease_GHDDI_ligprep

>  <b_m_subgroup_collapsed>  (536) 
0

$$$$
14104
     RDKit          2D

 45 44  0  0  1  0  0  0  0  0999 V2000
   -2.2857    7.8255    0.0000 C   0  0  0  0  0  0  0  0  0  0  0  0
   -3.3489    6.7674    0.0000 C   0  0  0  0  0  0  0  0  0  0  0  0
   -2.9642    5.3176    0.0000 O   0  0  0  0  0  0  0  0  0  0  0  0
   -4.0274    4.2595    0.0000 C   0  0  0  0  0  0  0  0  0  0  0  0
   -5.4753    4.6512    0.0000 O   0  0  0  0  0  0  0  0  0  0  0  0
   -3.6427    2.8097    0.0000 C   0  0  0  0  0  0  0  0  0  0  0  0
   -4.7059    1.7516    0.0000 C   0  0  0  0  0  0  0  0  0  0  0  0
   -4.3211    0.3018    0.0000 C   0  0  0  0  0  0  0  0  0  0  0  0
   -5.3844   -0.7563    0.0000 C   0  0  0  0  0  0  0  0  0  0  0  0
   -4.9996   -2.2062    0.0000 C   0  0  0  0  0  0  0  0  0  0  0  0
   -6.0628   -3.2643    0.0000 C   0  0  0  0  0  0  0  0  0  0  0  0
   -7.5108   -2.8725    0.0000 O   0  0  0  0  0  0  0  0  0  0  0  0
   -5.6781   -4.7141    0.0000 N   0  0  0  0  0  0  0  0  0  0  0  0
   -6.7413   -5.7722    0.0000 C   0  0  0  0  0  0  0  0  0  0  0  0
   -4.2302   -5.1058    0.0000 C   0  0  0  0  0  0  0  0  0  0  0  0
   -2.8732   -0.0900    0.0000 N   0  0  0  0  0  0  0  0  0  0  0  0
   -2.4885   -1.5398    0.0000 C   0  0  0  0  0  0  0  0  0  0  0  0
   -3.5517   -2.5979    0.0000 O   0  0  0  0  0  0  0  0  0  0  0  0
   -1.0405   -1.9315    0.0000 C   0  0  0  0  0  0  0  0  0  0  0  0
   -0.6558   -3.3813    0.0000 C   0  0  0  0  0  0  0  0  0  0  0  0
    0.7922   -3.7730    0.0000 C   0  0  0  0  0  0  0  0  0  0  0  0
    1.1769   -5.2229    0.0000 C   0  0  0  0  0  0  0  0  0  0  0  0
    1.8554   -2.7149    0.0000 C   0  0  0  0  0  0  0  0  0  0  0  0
    0.0227   -0.8734    0.0000 N   0  0  0  0  0  0  0  0  0  0  0  0
   -0.3620    0.5764    0.0000 C   0  0  0  0  0  0  0  0  0  0  0  0
   -1.8100    0.9681    0.0000 O   0  0  0  0  0  0  0  0  0  0  0  0
    0.7012    1.6345    0.0000 C   0  0  0  0  0  0  0  0  0  0  0  0
    2.1491    1.2428    0.0000 N   0  0  0  0  0  0  0  0  0  0  0  0
    3.2123    2.3009    0.0000 C   0  0  0  0  0  0  0  0  0  0  0  0
    2.8276    3.7507    0.0000 O   0  0  0  0  0  0  0  0  0  0  0  0
    4.6603    1.9092    0.0000 C   0  0  0  0  0  0  0  0  0  0  0  0
    5.7235    2.9673    0.0000 C   0  0  0  0  0  0  0  0  0  0  0  0
    5.0450    0.4594    0.0000 N   0  0  0  0  0  0  0  0  0  0  0  0
    6.4930    0.0676    0.0000 C   0  0  0  0  0  0  0  0  0  0  0  0
    7.5562    1.1257    0.0000 O   0  0  0  0  0  0  0  0  0  0  0  0
    6.8777   -1.3822    0.0000 C   0  0  0  0  0  0  0  0  0  0  0  0
    8.3257   -1.7739    0.0000 C   0  0  0  0  0  0  0  0  0  0  0  0
    8.7104   -3.2237    0.0000 O   0  0  0  0  0  0  0  0  0  0  0  0
    5.8145   -2.4403    0.0000 N   0  0  0  0  0  0  0  0  0  0  0  0
    4.3666   -2.0486    0.0000 C   0  0  0  0  0  0  0  0  0  0  0  0
    3.9818   -0.5987    0.0000 O   0  0  0  0  0  0  0  0  0  0  0  0
    3.3033   -3.1067    0.0000 C   0  0  0  0  0  0  0  0  0  0  0  0
    0.3164    3.0843    0.0000 C   0  0  0  0  0  0  0  0  0  0  0  0
    1.3797    4.1424    0.0000 C   0  0  0  0  0  0  0  0  0  0  0  0
   -1.1315    3.4761    0.0000 C   0  0  0  0  0  0  0  0  0  0  0  0
  1  2  1  0
  2  3  1  0
  3  4  1  0
  4  5  2  0
  4  6  1  0
  6  7  2  0
  7  8  1  0
  8  9  1  0
  8 16  1  0
  9 10  1  0
 10 11  1  0
 11 12  2  0
 11 13  1  0
 13 14  1  0
 13 15  1  0
 16 17  1  0
 17 18  2  0
 17 19  1  0
 19 20  1  0
 19 24  1  0
 20 21  1  0
 21 22  1  0
 21 23  1  0
 24 25  1  0
 25 26  2  0
 25 27  1  0
 27 28  1  0
 27 43  1  0
 28 29  1  0
 29 30  2  0
 29 31  1  0
 31 32  1  0
 31 33  1  0
 33 34  1  0
 34 35  2  0
 34 36  1  0
 36 37  1  0
 36 39  1  0
 37 38  1  0
 39 40  1  0
 40 41  2  0
 40 42  1  0
 43 44  1  0
 43 45  1  0
M  END
>  <s_m_entry_id>  (537) 
1311

>  <s_m_entry_name>  (537) 
3C-like_protease_GHDDI_ligprep.930

>  <s_m_Source_Path>  (537) 
/home/jgilaber/drug_learning/drug_learning/datasets/SAR1/GHDDI

>  <s_m_Source_File>  (537) 
3C-like_protease_GHDDI_ligprep.sdf

>  <i_m_Source_File_Index>  (537) 
930

>  <s_m_subgroup_title>  (537) 
3C-like_protease_GHDDI_ligprep

>  <s_m_subgroupid>  (537) 
3C-like_protease_GHDDI_ligprep

>  <b_m_subgroup_collapsed>  (537) 
0

$$$$
14105
     RDKit          2D

 45 44  0  0  1  0  0  0  0  0999 V2000
   -2.2857    7.8255    0.0000 C   0  0  0  0  0  0  0  0  0  0  0  0
   -3.3489    6.7674    0.0000 C   0  0  0  0  0  0  0  0  0  0  0  0
   -2.9642    5.3176    0.0000 O   0  0  0  0  0  0  0  0  0  0  0  0
   -4.0274    4.2595    0.0000 C   0  0  0  0  0  0  0  0  0  0  0  0
   -5.4753    4.6512    0.0000 O   0  0  0  0  0  0  0  0  0  0  0  0
   -3.6427    2.8097    0.0000 C   0  0  0  0  0  0  0  0  0  0  0  0
   -4.7059    1.7516    0.0000 C   0  0  0  0  0  0  0  0  0  0  0  0
   -4.3211    0.3018    0.0000 C   0  0  0  0  0  0  0  0  0  0  0  0
   -5.3844   -0.7563    0.0000 C   0  0  0  0  0  0  0  0  0  0  0  0
   -4.9996   -2.2062    0.0000 C   0  0  0  0  0  0  0  0  0  0  0  0
   -6.0628   -3.2643    0.0000 C   0  0  0  0  0  0  0  0  0  0  0  0
   -7.5108   -2.8725    0.0000 O   0  0  0  0  0  0  0  0  0  0  0  0
   -5.6781   -4.7141    0.0000 N   0  0  0  0  0  0  0  0  0  0  0  0
   -6.7413   -5.7722    0.0000 C   0  0  0  0  0  0  0  0  0  0  0  0
   -4.2302   -5.1058    0.0000 C   0  0  0  0  0  0  0  0  0  0  0  0
   -2.8732   -0.0900    0.0000 N   0  0  0  0  0  0  0  0  0  0  0  0
   -2.4885   -1.5398    0.0000 C   0  0  0  0  0  0  0  0  0  0  0  0
   -3.5517   -2.5979    0.0000 O   0  0  0  0  0  0  0  0  0  0  0  0
   -1.0405   -1.9315    0.0000 C   0  0  0  0  0  0  0  0  0  0  0  0
   -0.6558   -3.3813    0.0000 C   0  0  0  0  0  0  0  0  0  0  0  0
    0.7922   -3.7730    0.0000 C   0  0  0  0  0  0  0  0  0  0  0  0
    1.1769   -5.2229    0.0000 C   0  0  0  0  0  0  0  0  0  0  0  0
    1.8554   -2.7149    0.0000 C   0  0  0  0  0  0  0  0  0  0  0  0
    0.0227   -0.8734    0.0000 N   0  0  0  0  0  0  0  0  0  0  0  0
   -0.3620    0.5764    0.0000 C   0  0  0  0  0  0  0  0  0  0  0  0
   -1.8100    0.9681    0.0000 O   0  0  0  0  0  0  0  0  0  0  0  0
    0.7012    1.6345    0.0000 C   0  0  0  0  0  0  0  0  0  0  0  0
    2.1491    1.2428    0.0000 N   0  0  0  0  0  0  0  0  0  0  0  0
    3.2123    2.3009    0.0000 C   0  0  0  0  0  0  0  0  0  0  0  0
    2.8276    3.7507    0.0000 O   0  0  0  0  0  0  0  0  0  0  0  0
    4.6603    1.9092    0.0000 C   0  0  0  0  0  0  0  0  0  0  0  0
    5.7235    2.9673    0.0000 C   0  0  0  0  0  0  0  0  0  0  0  0
    5.0450    0.4594    0.0000 N   0  0  0  0  0  0  0  0  0  0  0  0
    6.4930    0.0676    0.0000 C   0  0  0  0  0  0  0  0  0  0  0  0
    7.5562    1.1257    0.0000 O   0  0  0  0  0  0  0  0  0  0  0  0
    6.8777   -1.3822    0.0000 C   0  0  0  0  0  0  0  0  0  0  0  0
    8.3257   -1.7739    0.0000 C   0  0  0  0  0  0  0  0  0  0  0  0
    8.7104   -3.2237    0.0000 O   0  0  0  0  0  0  0  0  0  0  0  0
    5.8145   -2.4403    0.0000 N   0  0  0  0  0  0  0  0  0  0  0  0
    4.3666   -2.0486    0.0000 C   0  0  0  0  0  0  0  0  0  0  0  0
    3.9818   -0.5987    0.0000 O   0  0  0  0  0  0  0  0  0  0  0  0
    3.3033   -3.1067    0.0000 C   0  0  0  0  0  0  0  0  0  0  0  0
    0.3164    3.0843    0.0000 C   0  0  0  0  0  0  0  0  0  0  0  0
    1.3797    4.1424    0.0000 C   0  0  0  0  0  0  0  0  0  0  0  0
   -1.1315    3.4761    0.0000 C   0  0  0  0  0  0  0  0  0  0  0  0
  1  2  1  0
  2  3  1  0
  3  4  1  0
  4  5  2  0
  4  6  1  0
  6  7  2  0
  7  8  1  0
  8  9  1  0
  8 16  1  0
  9 10  1  0
 10 11  1  0
 11 12  2  0
 11 13  1  0
 13 14  1  0
 13 15  1  0
 16 17  1  0
 17 18  2  0
 17 19  1  0
 19 20  1  0
 19 24  1  0
 20 21  1  0
 21 22  1  0
 21 23  1  0
 24 25  1  0
 25 26  2  0
 25 27  1  0
 27 28  1  0
 27 43  1  0
 28 29  1  0
 29 30  2  0
 29 31  1  0
 31 32  1  0
 31 33  1  0
 33 34  1  0
 34 35  2  0
 34 36  1  0
 36 37  1  0
 36 39  1  0
 37 38  1  0
 39 40  1  0
 40 41  2  0
 40 42  1  0
 43 44  1  0
 43 45  1  0
M  END
>  <s_m_entry_id>  (538) 
1313

>  <s_m_entry_name>  (538) 
3C-like_protease_GHDDI_ligprep.932

>  <s_m_Source_Path>  (538) 
/home/jgilaber/drug_learning/drug_learning/datasets/SAR1/GHDDI

>  <s_m_Source_File>  (538) 
3C-like_protease_GHDDI_ligprep.sdf

>  <i_m_Source_File_Index>  (538) 
932

>  <s_m_subgroup_title>  (538) 
3C-like_protease_GHDDI_ligprep

>  <s_m_subgroupid>  (538) 
3C-like_protease_GHDDI_ligprep

>  <b_m_subgroup_collapsed>  (538) 
0

$$$$
14106
     RDKit          2D

 33 35  0  0  1  0  0  0  0  0999 V2000
   -3.1130   -0.4847    0.0000 O   0  0  0  0  0  0  0  0  0  0  0  0
   -1.9724    0.4895    0.0000 C   0  0  0  0  0  0  0  0  0  0  0  0
   -0.5584   -0.0111    0.0000 N   0  0  0  0  0  0  0  0  0  0  0  0
   -0.2850   -1.4859    0.0000 C   0  0  0  0  0  0  0  0  0  0  0  0
    1.1290   -1.9866    0.0000 C   0  0  0  0  0  0  0  0  0  0  0  0
    2.2695   -1.0123    0.0000 O   0  0  0  0  0  0  0  0  0  0  0  0
    3.6835   -1.5129    0.0000 C   0  0  0  0  0  0  0  0  0  0  0  0
    3.9570   -2.9878    0.0000 O   0  0  0  0  0  0  0  0  0  0  0  0
    4.8241   -0.5387    0.0000 C   0  0  0  0  0  0  0  0  0  0  0  0
    6.2381   -1.0393    0.0000 C   0  0  0  0  0  0  0  0  0  0  0  0
    7.3786   -0.0650    0.0000 C   0  0  0  0  0  0  0  0  0  0  0  0
    8.7926   -0.5656    0.0000 C   0  0  0  0  0  0  0  0  0  0  0  0
    9.9332    0.4086    0.0000 C   0  0  0  0  0  0  0  0  0  0  0  0
    9.6597    1.8835    0.0000 C   0  0  0  0  0  0  0  0  0  0  0  0
    8.2457    2.3841    0.0000 C   0  0  0  0  0  0  0  0  0  0  0  0
    7.1052    1.4098    0.0000 C   0  0  0  0  0  0  0  0  0  0  0  0
   -1.4255   -2.4602    0.0000 C   0  0  0  0  0  0  0  0  0  0  0  0
   -1.1521   -3.9351    0.0000 O   0  0  0  0  0  0  0  0  0  0  0  0
   -2.8395   -1.9596    0.0000 N   0  0  0  0  0  0  0  0  0  0  0  0
   -3.9801   -2.9338    0.0000 C   0  0  0  0  0  0  0  0  0  0  0  0
   -5.3941   -2.4332    0.0000 C   0  0  0  0  0  0  0  0  0  0  0  0
   -6.5346   -3.4075    0.0000 C   0  0  0  0  0  0  0  0  0  0  0  0
   -6.2612   -4.8823    0.0000 C   0  0  0  0  0  0  0  0  0  0  0  0
   -4.8472   -5.3830    0.0000 C   0  0  0  0  0  0  0  0  0  0  0  0
   -3.7066   -4.4087    0.0000 C   0  0  0  0  0  0  0  0  0  0  0  0
   -2.2459    1.9644    0.0000 C   0  0  0  0  0  0  0  0  0  0  0  0
   -3.6599    2.4650    0.0000 C   0  0  0  0  0  0  0  0  0  0  0  0
   -3.9333    3.9399    0.0000 C   0  0  0  0  0  0  0  0  0  0  0  0
   -2.7928    4.9141    0.0000 C   0  0  0  0  0  0  0  0  0  0  0  0
   -3.0663    6.3890    0.0000 C   0  0  0  0  0  0  0  0  0  0  0  0
   -4.4803    6.8896    0.0000 C   0  0  0  0  0  0  0  0  0  0  0  0
   -5.6208    5.9153    0.0000 C   0  0  0  0  0  0  0  0  0  0  0  0
   -5.3473    4.4405    0.0000 C   0  0  0  0  0  0  0  0  0  0  0  0
  1  2  2  0
  2  3  1  0
  2 26  1  0
  3  4  1  0
  4  5  1  0
  4 17  1  0
  5  6  1  0
  6  7  1  0
  7  8  2  0
  7  9  1  0
  9 10  2  0
 10 11  1  0
 11 12  2  0
 11 16  1  0
 12 13  1  0
 13 14  2  0
 14 15  1  0
 15 16  2  0
 17 18  2  0
 17 19  1  0
 19 20  1  0
 20 21  1  0
 20 25  1  0
 21 22  1  0
 22 23  1  0
 23 24  1  0
 24 25  1  0
 26 27  2  0
 27 28  1  0
 28 29  2  0
 28 33  1  0
 29 30  1  0
 30 31  2  0
 31 32  1  0
 32 33  2  0
M  END
>  <s_m_entry_id>  (539) 
1314

>  <s_m_entry_name>  (539) 
3C-like_protease_GHDDI_ligprep.933

>  <s_m_Source_Path>  (539) 
/home/jgilaber/drug_learning/drug_learning/datasets/SAR1/GHDDI

>  <s_m_Source_File>  (539) 
3C-like_protease_GHDDI_ligprep.sdf

>  <i_m_Source_File_Index>  (539) 
933

>  <s_m_subgroup_title>  (539) 
3C-like_protease_GHDDI_ligprep

>  <s_m_subgroupid>  (539) 
3C-like_protease_GHDDI_ligprep

>  <b_m_subgroup_collapsed>  (539) 
0

$$$$
14107
     RDKit          2D

 33 35  0  0  1  0  0  0  0  0999 V2000
   -3.1130   -0.4847    0.0000 O   0  0  0  0  0  0  0  0  0  0  0  0
   -1.9724    0.4895    0.0000 C   0  0  0  0  0  0  0  0  0  0  0  0
   -0.5584   -0.0111    0.0000 N   0  0  0  0  0  0  0  0  0  0  0  0
   -0.2850   -1.4859    0.0000 C   0  0  0  0  0  0  0  0  0  0  0  0
    1.1290   -1.9866    0.0000 C   0  0  0  0  0  0  0  0  0  0  0  0
    2.2695   -1.0123    0.0000 O   0  0  0  0  0  0  0  0  0  0  0  0
    3.6835   -1.5129    0.0000 C   0  0  0  0  0  0  0  0  0  0  0  0
    3.9570   -2.9878    0.0000 O   0  0  0  0  0  0  0  0  0  0  0  0
    4.8241   -0.5387    0.0000 C   0  0  0  0  0  0  0  0  0  0  0  0
    6.2381   -1.0393    0.0000 C   0  0  0  0  0  0  0  0  0  0  0  0
    7.3786   -0.0650    0.0000 C   0  0  0  0  0  0  0  0  0  0  0  0
    8.7926   -0.5656    0.0000 C   0  0  0  0  0  0  0  0  0  0  0  0
    9.9332    0.4086    0.0000 C   0  0  0  0  0  0  0  0  0  0  0  0
    9.6597    1.8835    0.0000 C   0  0  0  0  0  0  0  0  0  0  0  0
    8.2457    2.3841    0.0000 C   0  0  0  0  0  0  0  0  0  0  0  0
    7.1052    1.4098    0.0000 C   0  0  0  0  0  0  0  0  0  0  0  0
   -1.4255   -2.4602    0.0000 C   0  0  0  0  0  0  0  0  0  0  0  0
   -1.1521   -3.9351    0.0000 O   0  0  0  0  0  0  0  0  0  0  0  0
   -2.8395   -1.9596    0.0000 N   0  0  0  0  0  0  0  0  0  0  0  0
   -3.9801   -2.9338    0.0000 C   0  0  0  0  0  0  0  0  0  0  0  0
   -5.3941   -2.4332    0.0000 C   0  0  0  0  0  0  0  0  0  0  0  0
   -6.5346   -3.4075    0.0000 C   0  0  0  0  0  0  0  0  0  0  0  0
   -6.2612   -4.8823    0.0000 C   0  0  0  0  0  0  0  0  0  0  0  0
   -4.8472   -5.3830    0.0000 C   0  0  0  0  0  0  0  0  0  0  0  0
   -3.7066   -4.4087    0.0000 C   0  0  0  0  0  0  0  0  0  0  0  0
   -2.2459    1.9644    0.0000 C   0  0  0  0  0  0  0  0  0  0  0  0
   -3.6599    2.4650    0.0000 C   0  0  0  0  0  0  0  0  0  0  0  0
   -3.9333    3.9399    0.0000 C   0  0  0  0  0  0  0  0  0  0  0  0
   -2.7928    4.9141    0.0000 C   0  0  0  0  0  0  0  0  0  0  0  0
   -3.0663    6.3890    0.0000 C   0  0  0  0  0  0  0  0  0  0  0  0
   -4.4803    6.8896    0.0000 C   0  0  0  0  0  0  0  0  0  0  0  0
   -5.6208    5.9153    0.0000 C   0  0  0  0  0  0  0  0  0  0  0  0
   -5.3473    4.4405    0.0000 C   0  0  0  0  0  0  0  0  0  0  0  0
  1  2  2  0
  2  3  1  0
  2 26  1  0
  3  4  1  0
  4  5  1  0
  4 17  1  0
  5  6  1  0
  6  7  1  0
  7  8  2  0
  7  9  1  0
  9 10  2  0
 10 11  1  0
 11 12  2  0
 11 16  1  0
 12 13  1  0
 13 14  2  0
 14 15  1  0
 15 16  2  0
 17 18  2  0
 17 19  1  0
 19 20  1  0
 20 21  1  0
 20 25  1  0
 21 22  1  0
 22 23  1  0
 23 24  1  0
 24 25  1  0
 26 27  2  0
 27 28  1  0
 28 29  2  0
 28 33  1  0
 29 30  1  0
 30 31  2  0
 31 32  1  0
 32 33  2  0
M  END
>  <s_m_entry_id>  (540) 
1318

>  <s_m_entry_name>  (540) 
3C-like_protease_GHDDI_ligprep.937

>  <s_m_Source_Path>  (540) 
/home/jgilaber/drug_learning/drug_learning/datasets/SAR1/GHDDI

>  <s_m_Source_File>  (540) 
3C-like_protease_GHDDI_ligprep.sdf

>  <i_m_Source_File_Index>  (540) 
937

>  <s_m_subgroup_title>  (540) 
3C-like_protease_GHDDI_ligprep

>  <s_m_subgroupid>  (540) 
3C-like_protease_GHDDI_ligprep

>  <b_m_subgroup_collapsed>  (540) 
0

$$$$
14109
     RDKit          2D

 26 27  0  0  1  0  0  0  0  0999 V2000
   -5.7776    3.4180    0.0000 C   0  0  0  0  0  0  0  0  0  0  0  0
   -4.2906    3.6149    0.0000 C   0  0  0  0  0  0  0  0  0  0  0  0
   -3.7176    5.0012    0.0000 O   0  0  0  0  0  0  0  0  0  0  0  0
   -3.3765    2.4256    0.0000 O   0  0  0  0  0  0  0  0  0  0  0  0
   -1.8895    2.6225    0.0000 C   0  0  0  0  0  0  0  0  0  0  0  0
   -0.9754    1.4332    0.0000 C   0  0  0  0  0  0  0  0  0  0  0  0
    0.5116    1.6301    0.0000 N   0  0  0  0  0  0  0  0  0  0  0  0
    1.4256    0.4408    0.0000 C   0  0  0  0  0  0  0  0  0  0  0  0
    0.8527   -0.9455    0.0000 O   0  0  0  0  0  0  0  0  0  0  0  0
    2.9126    0.6377    0.0000 C   0  0  0  0  0  0  0  0  0  0  0  0
    3.8267   -0.5516    0.0000 C   0  0  0  0  0  0  0  0  0  0  0  0
    5.3137   -0.3547    0.0000 C   0  0  0  0  0  0  0  0  0  0  0  0
    6.2278   -1.5440    0.0000 C   0  0  0  0  0  0  0  0  0  0  0  0
    7.7148   -1.3471    0.0000 C   0  0  0  0  0  0  0  0  0  0  0  0
    8.2877    0.0392    0.0000 C   0  0  0  0  0  0  0  0  0  0  0  0
    7.3737    1.2285    0.0000 C   0  0  0  0  0  0  0  0  0  0  0  0
    5.8867    1.0316    0.0000 C   0  0  0  0  0  0  0  0  0  0  0  0
   -1.5484    0.0469    0.0000 C   0  0  0  0  0  0  0  0  0  0  0  0
   -0.6344   -1.1424    0.0000 O   0  0  0  0  0  0  0  0  0  0  0  0
   -3.0354   -0.1500    0.0000 N   0  0  0  0  0  0  0  0  0  0  0  0
   -3.6084   -1.5363    0.0000 C   0  0  0  0  0  0  0  0  0  0  0  0
   -5.0954   -1.7332    0.0000 C   0  0  0  0  0  0  0  0  0  0  0  0
   -5.6684   -3.1194    0.0000 C   0  0  0  0  0  0  0  0  0  0  0  0
   -4.7543   -4.3088    0.0000 C   0  0  0  0  0  0  0  0  0  0  0  0
   -3.2673   -4.1118    0.0000 C   0  0  0  0  0  0  0  0  0  0  0  0
   -2.6943   -2.7256    0.0000 C   0  0  0  0  0  0  0  0  0  0  0  0
  1  2  1  0
  2  3  2  0
  2  4  1  0
  4  5  1  0
  5  6  1  0
  6  7  1  0
  6 18  1  0
  7  8  1  0
  8  9  2  0
  8 10  1  0
 10 11  2  0
 11 12  1  0
 12 13  2  0
 12 17  1  0
 13 14  1  0
 14 15  2  0
 15 16  1  0
 16 17  2  0
 18 19  2  0
 18 20  1  0
 20 21  1  0
 21 22  1  0
 21 26  1  0
 22 23  1  0
 23 24  1  0
 24 25  1  0
 25 26  1  0
M  END
>  <s_m_entry_id>  (541) 
1320

>  <s_m_entry_name>  (541) 
3C-like_protease_GHDDI_ligprep.939

>  <s_m_Source_Path>  (541) 
/home/jgilaber/drug_learning/drug_learning/datasets/SAR1/GHDDI

>  <s_m_Source_File>  (541) 
3C-like_protease_GHDDI_ligprep.sdf

>  <i_m_Source_File_Index>  (541) 
939

>  <s_m_subgroup_title>  (541) 
3C-like_protease_GHDDI_ligprep

>  <s_m_subgroupid>  (541) 
3C-like_protease_GHDDI_ligprep

>  <b_m_subgroup_collapsed>  (541) 
0

$$$$
14110
     RDKit          2D

 26 27  0  0  1  0  0  0  0  0999 V2000
   -5.7776    3.4180    0.0000 C   0  0  0  0  0  0  0  0  0  0  0  0
   -4.2906    3.6149    0.0000 C   0  0  0  0  0  0  0  0  0  0  0  0
   -3.7176    5.0012    0.0000 O   0  0  0  0  0  0  0  0  0  0  0  0
   -3.3765    2.4256    0.0000 O   0  0  0  0  0  0  0  0  0  0  0  0
   -1.8895    2.6225    0.0000 C   0  0  0  0  0  0  0  0  0  0  0  0
   -0.9754    1.4332    0.0000 C   0  0  0  0  0  0  0  0  0  0  0  0
    0.5116    1.6301    0.0000 N   0  0  0  0  0  0  0  0  0  0  0  0
    1.4256    0.4408    0.0000 C   0  0  0  0  0  0  0  0  0  0  0  0
    0.8527   -0.9455    0.0000 O   0  0  0  0  0  0  0  0  0  0  0  0
    2.9126    0.6377    0.0000 C   0  0  0  0  0  0  0  0  0  0  0  0
    3.8267   -0.5516    0.0000 C   0  0  0  0  0  0  0  0  0  0  0  0
    5.3137   -0.3547    0.0000 C   0  0  0  0  0  0  0  0  0  0  0  0
    6.2278   -1.5440    0.0000 C   0  0  0  0  0  0  0  0  0  0  0  0
    7.7148   -1.3471    0.0000 C   0  0  0  0  0  0  0  0  0  0  0  0
    8.2877    0.0392    0.0000 C   0  0  0  0  0  0  0  0  0  0  0  0
    7.3737    1.2285    0.0000 C   0  0  0  0  0  0  0  0  0  0  0  0
    5.8867    1.0316    0.0000 C   0  0  0  0  0  0  0  0  0  0  0  0
   -1.5484    0.0469    0.0000 C   0  0  0  0  0  0  0  0  0  0  0  0
   -0.6344   -1.1424    0.0000 O   0  0  0  0  0  0  0  0  0  0  0  0
   -3.0354   -0.1500    0.0000 N   0  0  0  0  0  0  0  0  0  0  0  0
   -3.6084   -1.5363    0.0000 C   0  0  0  0  0  0  0  0  0  0  0  0
   -5.0954   -1.7332    0.0000 C   0  0  0  0  0  0  0  0  0  0  0  0
   -5.6684   -3.1194    0.0000 C   0  0  0  0  0  0  0  0  0  0  0  0
   -4.7543   -4.3088    0.0000 C   0  0  0  0  0  0  0  0  0  0  0  0
   -3.2673   -4.1118    0.0000 C   0  0  0  0  0  0  0  0  0  0  0  0
   -2.6943   -2.7256    0.0000 C   0  0  0  0  0  0  0  0  0  0  0  0
  1  2  1  0
  2  3  2  0
  2  4  1  0
  4  5  1  0
  5  6  1  0
  6  7  1  0
  6 18  1  0
  7  8  1  0
  8  9  2  0
  8 10  1  0
 10 11  2  0
 11 12  1  0
 12 13  2  0
 12 17  1  0
 13 14  1  0
 14 15  2  0
 15 16  1  0
 16 17  2  0
 18 19  2  0
 18 20  1  0
 20 21  1  0
 21 22  1  0
 21 26  1  0
 22 23  1  0
 23 24  1  0
 24 25  1  0
 25 26  1  0
M  END
>  <s_m_entry_id>  (542) 
1322

>  <s_m_entry_name>  (542) 
3C-like_protease_GHDDI_ligprep.941

>  <s_m_Source_Path>  (542) 
/home/jgilaber/drug_learning/drug_learning/datasets/SAR1/GHDDI

>  <s_m_Source_File>  (542) 
3C-like_protease_GHDDI_ligprep.sdf

>  <i_m_Source_File_Index>  (542) 
941

>  <s_m_subgroup_title>  (542) 
3C-like_protease_GHDDI_ligprep

>  <s_m_subgroupid>  (542) 
3C-like_protease_GHDDI_ligprep

>  <b_m_subgroup_collapsed>  (542) 
0

$$$$
14111
     RDKit          2D

 32 34  0  0  1  0  0  0  0  0999 V2000
   -1.7594   -0.9177    0.0000 O   0  0  0  0  0  0  0  0  0  0  0  0
   -0.7297    0.1731    0.0000 C   0  0  0  0  0  0  0  0  0  0  0  0
    0.7297   -0.1731    0.0000 N   0  0  0  0  0  0  0  0  0  0  0  0
    1.1596   -1.6102    0.0000 C   0  0  0  0  0  0  0  0  0  0  0  0
    2.6191   -1.9565    0.0000 C   0  0  0  0  0  0  0  0  0  0  0  0
    3.6487   -0.8657    0.0000 O   0  0  0  0  0  0  0  0  0  0  0  0
    5.1082   -1.2120    0.0000 C   0  0  0  0  0  0  0  0  0  0  0  0
    5.5380   -2.6491    0.0000 O   0  0  0  0  0  0  0  0  0  0  0  0
    6.1378   -0.1212    0.0000 C   0  0  0  0  0  0  0  0  0  0  0  0
    7.5973   -0.4675    0.0000 C   0  0  0  0  0  0  0  0  0  0  0  0
    8.6269    0.6233    0.0000 C   0  0  0  0  0  0  0  0  0  0  0  0
    8.1971    2.0604    0.0000 C   0  0  0  0  0  0  0  0  0  0  0  0
    6.7376    2.4067    0.0000 C   0  0  0  0  0  0  0  0  0  0  0  0
    5.7080    1.3159    0.0000 C   0  0  0  0  0  0  0  0  0  0  0  0
    0.1299   -2.7010    0.0000 C   0  0  0  0  0  0  0  0  0  0  0  0
    0.5598   -4.1381    0.0000 O   0  0  0  0  0  0  0  0  0  0  0  0
   -1.3295   -2.3547    0.0000 N   0  0  0  0  0  0  0  0  0  0  0  0
   -2.3592   -3.4455    0.0000 C   0  0  0  0  0  0  0  0  0  0  0  0
   -3.8187   -3.0993    0.0000 C   0  0  0  0  0  0  0  0  0  0  0  0
   -4.2485   -1.6622    0.0000 C   0  0  0  0  0  0  0  0  0  0  0  0
   -5.7080   -1.3159    0.0000 C   0  0  0  0  0  0  0  0  0  0  0  0
   -6.7376   -2.4067    0.0000 C   0  0  0  0  0  0  0  0  0  0  0  0
   -6.3078   -3.8438    0.0000 C   0  0  0  0  0  0  0  0  0  0  0  0
   -4.8483   -4.1901    0.0000 C   0  0  0  0  0  0  0  0  0  0  0  0
   -1.1596    1.6102    0.0000 C   0  0  0  0  0  0  0  0  0  0  0  0
   -2.6191    1.9565    0.0000 C   0  0  0  0  0  0  0  0  0  0  0  0
   -3.0489    3.3936    0.0000 C   0  0  0  0  0  0  0  0  0  0  0  0
   -2.0193    4.4844    0.0000 C   0  0  0  0  0  0  0  0  0  0  0  0
   -2.4491    5.9215    0.0000 C   0  0  0  0  0  0  0  0  0  0  0  0
   -3.9086    6.2678    0.0000 C   0  0  0  0  0  0  0  0  0  0  0  0
   -4.9382    5.1770    0.0000 C   0  0  0  0  0  0  0  0  0  0  0  0
   -4.5084    3.7399    0.0000 C   0  0  0  0  0  0  0  0  0  0  0  0
  1  2  2  0
  2  3  1  0
  2 25  1  0
  3  4  1  0
  4  5  1  0
  4 15  1  0
  5  6  1  0
  6  7  1  0
  7  8  2  0
  7  9  1  0
  9 10  2  0
  9 14  1  0
 10 11  1  0
 11 12  2  0
 12 13  1  0
 13 14  2  0
 15 16  2  0
 15 17  1  0
 17 18  1  0
 18 19  1  0
 19 20  1  0
 19 24  1  0
 20 21  1  0
 21 22  1  0
 22 23  1  0
 23 24  1  0
 25 26  2  0
 26 27  1  0
 27 28  2  0
 27 32  1  0
 28 29  1  0
 29 30  2  0
 30 31  1  0
 31 32  2  0
M  END
>  <s_m_entry_id>  (543) 
1323

>  <s_m_entry_name>  (543) 
3C-like_protease_GHDDI_ligprep.942

>  <s_m_Source_Path>  (543) 
/home/jgilaber/drug_learning/drug_learning/datasets/SAR1/GHDDI

>  <s_m_Source_File>  (543) 
3C-like_protease_GHDDI_ligprep.sdf

>  <i_m_Source_File_Index>  (543) 
942

>  <s_m_subgroup_title>  (543) 
3C-like_protease_GHDDI_ligprep

>  <s_m_subgroupid>  (543) 
3C-like_protease_GHDDI_ligprep

>  <b_m_subgroup_collapsed>  (543) 
0

$$$$
14112
     RDKit          2D

 32 34  0  0  1  0  0  0  0  0999 V2000
   -1.7594   -0.9177    0.0000 O   0  0  0  0  0  0  0  0  0  0  0  0
   -0.7297    0.1731    0.0000 C   0  0  0  0  0  0  0  0  0  0  0  0
    0.7297   -0.1731    0.0000 N   0  0  0  0  0  0  0  0  0  0  0  0
    1.1596   -1.6102    0.0000 C   0  0  0  0  0  0  0  0  0  0  0  0
    2.6191   -1.9565    0.0000 C   0  0  0  0  0  0  0  0  0  0  0  0
    3.6487   -0.8657    0.0000 O   0  0  0  0  0  0  0  0  0  0  0  0
    5.1082   -1.2120    0.0000 C   0  0  0  0  0  0  0  0  0  0  0  0
    5.5380   -2.6491    0.0000 O   0  0  0  0  0  0  0  0  0  0  0  0
    6.1378   -0.1212    0.0000 C   0  0  0  0  0  0  0  0  0  0  0  0
    7.5973   -0.4675    0.0000 C   0  0  0  0  0  0  0  0  0  0  0  0
    8.6269    0.6233    0.0000 C   0  0  0  0  0  0  0  0  0  0  0  0
    8.1971    2.0604    0.0000 C   0  0  0  0  0  0  0  0  0  0  0  0
    6.7376    2.4067    0.0000 C   0  0  0  0  0  0  0  0  0  0  0  0
    5.7080    1.3159    0.0000 C   0  0  0  0  0  0  0  0  0  0  0  0
    0.1299   -2.7010    0.0000 C   0  0  0  0  0  0  0  0  0  0  0  0
    0.5598   -4.1381    0.0000 O   0  0  0  0  0  0  0  0  0  0  0  0
   -1.3295   -2.3547    0.0000 N   0  0  0  0  0  0  0  0  0  0  0  0
   -2.3592   -3.4455    0.0000 C   0  0  0  0  0  0  0  0  0  0  0  0
   -3.8187   -3.0993    0.0000 C   0  0  0  0  0  0  0  0  0  0  0  0
   -4.2485   -1.6622    0.0000 C   0  0  0  0  0  0  0  0  0  0  0  0
   -5.7080   -1.3159    0.0000 C   0  0  0  0  0  0  0  0  0  0  0  0
   -6.7376   -2.4067    0.0000 C   0  0  0  0  0  0  0  0  0  0  0  0
   -6.3078   -3.8438    0.0000 C   0  0  0  0  0  0  0  0  0  0  0  0
   -4.8483   -4.1901    0.0000 C   0  0  0  0  0  0  0  0  0  0  0  0
   -1.1596    1.6102    0.0000 C   0  0  0  0  0  0  0  0  0  0  0  0
   -2.6191    1.9565    0.0000 C   0  0  0  0  0  0  0  0  0  0  0  0
   -3.0489    3.3936    0.0000 C   0  0  0  0  0  0  0  0  0  0  0  0
   -2.0193    4.4844    0.0000 C   0  0  0  0  0  0  0  0  0  0  0  0
   -2.4491    5.9215    0.0000 C   0  0  0  0  0  0  0  0  0  0  0  0
   -3.9086    6.2678    0.0000 C   0  0  0  0  0  0  0  0  0  0  0  0
   -4.9382    5.1770    0.0000 C   0  0  0  0  0  0  0  0  0  0  0  0
   -4.5084    3.7399    0.0000 C   0  0  0  0  0  0  0  0  0  0  0  0
  1  2  2  0
  2  3  1  0
  2 25  1  0
  3  4  1  0
  4  5  1  0
  4 15  1  0
  5  6  1  0
  6  7  1  0
  7  8  2  0
  7  9  1  0
  9 10  2  0
  9 14  1  0
 10 11  1  0
 11 12  2  0
 12 13  1  0
 13 14  2  0
 15 16  2  0
 15 17  1  0
 17 18  1  0
 18 19  1  0
 19 20  1  0
 19 24  1  0
 20 21  1  0
 21 22  1  0
 22 23  1  0
 23 24  1  0
 25 26  2  0
 26 27  1  0
 27 28  2  0
 27 32  1  0
 28 29  1  0
 29 30  2  0
 30 31  1  0
 31 32  2  0
M  END
>  <s_m_entry_id>  (544) 
1325

>  <s_m_entry_name>  (544) 
3C-like_protease_GHDDI_ligprep.944

>  <s_m_Source_Path>  (544) 
/home/jgilaber/drug_learning/drug_learning/datasets/SAR1/GHDDI

>  <s_m_Source_File>  (544) 
3C-like_protease_GHDDI_ligprep.sdf

>  <i_m_Source_File_Index>  (544) 
944

>  <s_m_subgroup_title>  (544) 
3C-like_protease_GHDDI_ligprep

>  <s_m_subgroupid>  (544) 
3C-like_protease_GHDDI_ligprep

>  <b_m_subgroup_collapsed>  (544) 
0

$$$$
14113
     RDKit          2D

 29 30  0  0  1  0  0  0  0  0999 V2000
   -5.8452    3.8695    0.0000 C   0  0  0  0  0  0  0  0  0  0  0  0
   -5.4671    2.4179    0.0000 C   0  0  0  0  0  0  0  0  0  0  0  0
   -5.0890    0.9663    0.0000 C   0  0  0  0  0  0  0  0  0  0  0  0
   -6.9186    2.0398    0.0000 C   0  0  0  0  0  0  0  0  0  0  0  0
   -4.0155    2.7960    0.0000 C   0  0  0  0  0  0  0  0  0  0  0  0
   -3.6172    4.2422    0.0000 O   0  0  0  0  0  0  0  0  0  0  0  0
   -2.9623    1.7280    0.0000 O   0  0  0  0  0  0  0  0  0  0  0  0
   -1.5107    2.1061    0.0000 C   0  0  0  0  0  0  0  0  0  0  0  0
   -0.4575    1.0381    0.0000 C   0  0  0  0  0  0  0  0  0  0  0  0
    0.9941    1.4162    0.0000 N   0  0  0  0  0  0  0  0  0  0  0  0
    2.0473    0.3481    0.0000 C   0  0  0  0  0  0  0  0  0  0  0  0
    1.6490   -1.0980    0.0000 O   0  0  0  0  0  0  0  0  0  0  0  0
    3.4989    0.7263    0.0000 C   0  0  0  0  0  0  0  0  0  0  0  0
    4.5521   -0.3418    0.0000 C   0  0  0  0  0  0  0  0  0  0  0  0
    6.0037    0.0363    0.0000 C   0  0  0  0  0  0  0  0  0  0  0  0
    7.0569   -1.0317    0.0000 C   0  0  0  0  0  0  0  0  0  0  0  0
    8.5085   -0.6536    0.0000 C   0  0  0  0  0  0  0  0  0  0  0  0
    8.9068    0.7926    0.0000 C   0  0  0  0  0  0  0  0  0  0  0  0
    7.8536    1.8606    0.0000 C   0  0  0  0  0  0  0  0  0  0  0  0
    6.4020    1.4825    0.0000 C   0  0  0  0  0  0  0  0  0  0  0  0
   -0.8558   -0.4081    0.0000 C   0  0  0  0  0  0  0  0  0  0  0  0
    0.1974   -1.4761    0.0000 O   0  0  0  0  0  0  0  0  0  0  0  0
   -2.3074   -0.7862    0.0000 N   0  0  0  0  0  0  0  0  0  0  0  0
   -2.7057   -2.2323    0.0000 C   0  0  0  0  0  0  0  0  0  0  0  0
   -4.1573   -2.6105    0.0000 C   0  0  0  0  0  0  0  0  0  0  0  0
   -4.5556   -4.0566    0.0000 C   0  0  0  0  0  0  0  0  0  0  0  0
   -3.5023   -5.1246    0.0000 C   0  0  0  0  0  0  0  0  0  0  0  0
   -2.0508   -4.7465    0.0000 C   0  0  0  0  0  0  0  0  0  0  0  0
   -1.6525   -3.3004    0.0000 C   0  0  0  0  0  0  0  0  0  0  0  0
  1  2  1  0
  2  3  1  0
  2  4  1  0
  2  5  1  0
  5  6  2  0
  5  7  1  0
  7  8  1  0
  8  9  1  0
  9 10  1  0
  9 21  1  0
 10 11  1  0
 11 12  2  0
 11 13  1  0
 13 14  2  0
 14 15  1  0
 15 16  2  0
 15 20  1  0
 16 17  1  0
 17 18  2  0
 18 19  1  0
 19 20  2  0
 21 22  2  0
 21 23  1  0
 23 24  1  0
 24 25  1  0
 24 29  1  0
 25 26  1  0
 26 27  1  0
 27 28  1  0
 28 29  1  0
M  END
>  <s_m_entry_id>  (545) 
1326

>  <s_m_entry_name>  (545) 
3C-like_protease_GHDDI_ligprep.945

>  <s_m_Source_Path>  (545) 
/home/jgilaber/drug_learning/drug_learning/datasets/SAR1/GHDDI

>  <s_m_Source_File>  (545) 
3C-like_protease_GHDDI_ligprep.sdf

>  <i_m_Source_File_Index>  (545) 
945

>  <s_m_subgroup_title>  (545) 
3C-like_protease_GHDDI_ligprep

>  <s_m_subgroupid>  (545) 
3C-like_protease_GHDDI_ligprep

>  <b_m_subgroup_collapsed>  (545) 
0

$$$$
14114
     RDKit          2D

 29 30  0  0  1  0  0  0  0  0999 V2000
   -5.8452    3.8695    0.0000 C   0  0  0  0  0  0  0  0  0  0  0  0
   -5.4671    2.4179    0.0000 C   0  0  0  0  0  0  0  0  0  0  0  0
   -5.0890    0.9663    0.0000 C   0  0  0  0  0  0  0  0  0  0  0  0
   -6.9186    2.0398    0.0000 C   0  0  0  0  0  0  0  0  0  0  0  0
   -4.0155    2.7960    0.0000 C   0  0  0  0  0  0  0  0  0  0  0  0
   -3.6172    4.2422    0.0000 O   0  0  0  0  0  0  0  0  0  0  0  0
   -2.9623    1.7280    0.0000 O   0  0  0  0  0  0  0  0  0  0  0  0
   -1.5107    2.1061    0.0000 C   0  0  0  0  0  0  0  0  0  0  0  0
   -0.4575    1.0381    0.0000 C   0  0  0  0  0  0  0  0  0  0  0  0
    0.9941    1.4162    0.0000 N   0  0  0  0  0  0  0  0  0  0  0  0
    2.0473    0.3481    0.0000 C   0  0  0  0  0  0  0  0  0  0  0  0
    1.6490   -1.0980    0.0000 O   0  0  0  0  0  0  0  0  0  0  0  0
    3.4989    0.7263    0.0000 C   0  0  0  0  0  0  0  0  0  0  0  0
    4.5521   -0.3418    0.0000 C   0  0  0  0  0  0  0  0  0  0  0  0
    6.0037    0.0363    0.0000 C   0  0  0  0  0  0  0  0  0  0  0  0
    7.0569   -1.0317    0.0000 C   0  0  0  0  0  0  0  0  0  0  0  0
    8.5085   -0.6536    0.0000 C   0  0  0  0  0  0  0  0  0  0  0  0
    8.9068    0.7926    0.0000 C   0  0  0  0  0  0  0  0  0  0  0  0
    7.8536    1.8606    0.0000 C   0  0  0  0  0  0  0  0  0  0  0  0
    6.4020    1.4825    0.0000 C   0  0  0  0  0  0  0  0  0  0  0  0
   -0.8558   -0.4081    0.0000 C   0  0  0  0  0  0  0  0  0  0  0  0
    0.1974   -1.4761    0.0000 O   0  0  0  0  0  0  0  0  0  0  0  0
   -2.3074   -0.7862    0.0000 N   0  0  0  0  0  0  0  0  0  0  0  0
   -2.7057   -2.2323    0.0000 C   0  0  0  0  0  0  0  0  0  0  0  0
   -4.1573   -2.6105    0.0000 C   0  0  0  0  0  0  0  0  0  0  0  0
   -4.5556   -4.0566    0.0000 C   0  0  0  0  0  0  0  0  0  0  0  0
   -3.5023   -5.1246    0.0000 C   0  0  0  0  0  0  0  0  0  0  0  0
   -2.0508   -4.7465    0.0000 C   0  0  0  0  0  0  0  0  0  0  0  0
   -1.6525   -3.3004    0.0000 C   0  0  0  0  0  0  0  0  0  0  0  0
  1  2  1  0
  2  3  1  0
  2  4  1  0
  2  5  1  0
  5  6  2  0
  5  7  1  0
  7  8  1  0
  8  9  1  0
  9 10  1  0
  9 21  1  0
 10 11  1  0
 11 12  2  0
 11 13  1  0
 13 14  2  0
 14 15  1  0
 15 16  2  0
 15 20  1  0
 16 17  1  0
 17 18  2  0
 18 19  1  0
 19 20  2  0
 21 22  2  0
 21 23  1  0
 23 24  1  0
 24 25  1  0
 24 29  1  0
 25 26  1  0
 26 27  1  0
 27 28  1  0
 28 29  1  0
M  END
>  <s_m_entry_id>  (546) 
1328

>  <s_m_entry_name>  (546) 
3C-like_protease_GHDDI_ligprep.947

>  <s_m_Source_Path>  (546) 
/home/jgilaber/drug_learning/drug_learning/datasets/SAR1/GHDDI

>  <s_m_Source_File>  (546) 
3C-like_protease_GHDDI_ligprep.sdf

>  <i_m_Source_File_Index>  (546) 
947

>  <s_m_subgroup_title>  (546) 
3C-like_protease_GHDDI_ligprep

>  <s_m_subgroupid>  (546) 
3C-like_protease_GHDDI_ligprep

>  <b_m_subgroup_collapsed>  (546) 
0

$$$$
14119
     RDKit          2D

 32 34  0  0  1  0  0  0  0  0999 V2000
   -1.5128   -0.8862    0.0000 O   0  0  0  0  0  0  0  0  0  0  0  0
   -0.6523    0.3424    0.0000 C   0  0  0  0  0  0  0  0  0  0  0  0
    0.8420    0.2115    0.0000 N   0  0  0  0  0  0  0  0  0  0  0  0
    1.4757   -1.1481    0.0000 C   0  0  0  0  0  0  0  0  0  0  0  0
    2.9700   -1.2791    0.0000 C   0  0  0  0  0  0  0  0  0  0  0  0
    3.8305   -0.0505    0.0000 O   0  0  0  0  0  0  0  0  0  0  0  0
    5.3248   -0.1814    0.0000 C   0  0  0  0  0  0  0  0  0  0  0  0
    5.9585   -1.5410    0.0000 O   0  0  0  0  0  0  0  0  0  0  0  0
    6.1854    1.0471    0.0000 C   0  0  0  0  0  0  0  0  0  0  0  0
    7.6796    0.9162    0.0000 C   0  0  0  0  0  0  0  0  0  0  0  0
    8.5402    2.1448    0.0000 C   0  0  0  0  0  0  0  0  0  0  0  0
    7.9065    3.5043    0.0000 C   0  0  0  0  0  0  0  0  0  0  0  0
    6.4122    3.6353    0.0000 C   0  0  0  0  0  0  0  0  0  0  0  0
    5.5516    2.4067    0.0000 C   0  0  0  0  0  0  0  0  0  0  0  0
    0.6151   -2.3767    0.0000 C   0  0  0  0  0  0  0  0  0  0  0  0
    1.2489   -3.7363    0.0000 O   0  0  0  0  0  0  0  0  0  0  0  0
   -0.8791   -2.2457    0.0000 N   0  0  0  0  0  0  0  0  0  0  0  0
   -1.7397   -3.4743    0.0000 C   0  0  0  0  0  0  0  0  0  0  0  0
   -3.2340   -3.3434    0.0000 C   0  0  0  0  0  0  0  0  0  0  0  0
   -4.0945   -4.5720    0.0000 C   0  0  0  0  0  0  0  0  0  0  0  0
   -3.4608   -5.9315    0.0000 C   0  0  0  0  0  0  0  0  0  0  0  0
   -1.9665   -6.0625    0.0000 C   0  0  0  0  0  0  0  0  0  0  0  0
   -1.1060   -4.8339    0.0000 C   0  0  0  0  0  0  0  0  0  0  0  0
   -1.2860    1.7020    0.0000 C   0  0  0  0  0  0  0  0  0  0  0  0
   -2.7803    1.8330    0.0000 C   0  0  0  0  0  0  0  0  0  0  0  0
   -3.4140    3.1925    0.0000 C   0  0  0  0  0  0  0  0  0  0  0  0
   -4.9083    3.3235    0.0000 C   0  0  0  0  0  0  0  0  0  0  0  0
   -5.5420    4.6830    0.0000 C   0  0  0  0  0  0  0  0  0  0  0  0
   -7.0362    4.8140    0.0000 C   0  0  0  0  0  0  0  0  0  0  0  0
   -7.8968    3.5854    0.0000 C   0  0  0  0  0  0  0  0  0  0  0  0
   -7.2631    2.2259    0.0000 C   0  0  0  0  0  0  0  0  0  0  0  0
   -5.7688    2.0949    0.0000 C   0  0  0  0  0  0  0  0  0  0  0  0
  1  2  2  0
  2  3  1  0
  2 24  1  0
  3  4  1  0
  4  5  1  0
  4 15  1  0
  5  6  1  0
  6  7  1  0
  7  8  2  0
  7  9  1  0
  9 10  2  0
  9 14  1  0
 10 11  1  0
 11 12  2  0
 12 13  1  0
 13 14  2  0
 15 16  2  0
 15 17  1  0
 17 18  1  0
 18 19  1  0
 18 23  1  0
 19 20  1  0
 20 21  1  0
 21 22  1  0
 22 23  1  0
 24 25  2  0
 25 26  1  0
 26 27  1  0
 27 28  2  0
 27 32  1  0
 28 29  1  0
 29 30  2  0
 30 31  1  0
 31 32  2  0
M  END
>  <s_m_entry_id>  (547) 
1333

>  <s_m_entry_name>  (547) 
3C-like_protease_GHDDI_ligprep.952

>  <s_m_Source_Path>  (547) 
/home/jgilaber/drug_learning/drug_learning/datasets/SAR1/GHDDI

>  <s_m_Source_File>  (547) 
3C-like_protease_GHDDI_ligprep.sdf

>  <i_m_Source_File_Index>  (547) 
952

>  <s_m_subgroup_title>  (547) 
3C-like_protease_GHDDI_ligprep

>  <s_m_subgroupid>  (547) 
3C-like_protease_GHDDI_ligprep

>  <b_m_subgroup_collapsed>  (547) 
0

$$$$
14120
     RDKit          2D

 34 36  0  0  1  0  0  0  0  0999 V2000
   -8.3898   -2.7322    0.0000 Cl  0  0  0  0  0  0  0  0  0  0  0  0
   -7.2905   -1.7116    0.0000 C   0  0  0  0  0  0  0  0  0  0  0  0
   -7.6247   -0.2493    0.0000 C   0  0  0  0  0  0  0  0  0  0  0  0
   -6.5254    0.7713    0.0000 C   0  0  0  0  0  0  0  0  0  0  0  0
   -6.8597    2.2336    0.0000 Cl  0  0  0  0  0  0  0  0  0  0  0  0
   -5.0919    0.3296    0.0000 C   0  0  0  0  0  0  0  0  0  0  0  0
   -3.9927    1.3502    0.0000 C   0  0  0  0  0  0  0  0  0  0  0  0
   -4.3269    2.8125    0.0000 O   0  0  0  0  0  0  0  0  0  0  0  0
   -2.5592    0.9085    0.0000 O   0  0  0  0  0  0  0  0  0  0  0  0
   -1.4599    1.9291    0.0000 C   0  0  0  0  0  0  0  0  0  0  0  0
   -0.0264    1.4874    0.0000 C   0  0  0  0  0  0  0  0  0  0  0  0
    0.3078    0.0251    0.0000 N   0  0  0  0  0  0  0  0  0  0  0  0
    1.7413   -0.4166    0.0000 C   0  0  0  0  0  0  0  0  0  0  0  0
    2.8406    0.6040    0.0000 O   0  0  0  0  0  0  0  0  0  0  0  0
    2.0755   -1.8789    0.0000 C   0  0  0  0  0  0  0  0  0  0  0  0
    3.5090   -2.3206    0.0000 C   0  0  0  0  0  0  0  0  0  0  0  0
    3.8432   -3.7829    0.0000 C   0  0  0  0  0  0  0  0  0  0  0  0
    2.7440   -4.8035    0.0000 C   0  0  0  0  0  0  0  0  0  0  0  0
    3.0782   -6.2658    0.0000 C   0  0  0  0  0  0  0  0  0  0  0  0
    4.5117   -6.7075    0.0000 C   0  0  0  0  0  0  0  0  0  0  0  0
    5.6109   -5.6869    0.0000 C   0  0  0  0  0  0  0  0  0  0  0  0
    5.2767   -4.2246    0.0000 C   0  0  0  0  0  0  0  0  0  0  0  0
    1.0729    2.5080    0.0000 C   0  0  0  0  0  0  0  0  0  0  0  0
    0.7386    3.9703    0.0000 O   0  0  0  0  0  0  0  0  0  0  0  0
    2.5063    2.0663    0.0000 N   0  0  0  0  0  0  0  0  0  0  0  0
    3.6056    3.0869    0.0000 C   0  0  0  0  0  0  0  0  0  0  0  0
    5.0391    2.6452    0.0000 C   0  0  0  0  0  0  0  0  0  0  0  0
    6.1384    3.6658    0.0000 C   0  0  0  0  0  0  0  0  0  0  0  0
    5.8042    5.1280    0.0000 C   0  0  0  0  0  0  0  0  0  0  0  0
    4.3707    5.5697    0.0000 C   0  0  0  0  0  0  0  0  0  0  0  0
    3.2714    4.5492    0.0000 C   0  0  0  0  0  0  0  0  0  0  0  0
   -4.7577   -1.1327    0.0000 C   0  0  0  0  0  0  0  0  0  0  0  0
   -3.3242   -1.5744    0.0000 Cl  0  0  0  0  0  0  0  0  0  0  0  0
   -5.8570   -2.1533    0.0000 C   0  0  0  0  0  0  0  0  0  0  0  0
  1  2  1  0
  2  3  2  0
  2 34  1  0
  3  4  1  0
  4  5  1  0
  4  6  2  0
  6  7  1  0
  6 32  1  0
  7  8  2  0
  7  9  1  0
  9 10  1  0
 10 11  1  0
 11 12  1  0
 11 23  1  0
 12 13  1  0
 13 14  2  0
 13 15  1  0
 15 16  2  0
 16 17  1  0
 17 18  2  0
 17 22  1  0
 18 19  1  0
 19 20  2  0
 20 21  1  0
 21 22  2  0
 23 24  2  0
 23 25  1  0
 25 26  1  0
 26 27  1  0
 26 31  1  0
 27 28  1  0
 28 29  1  0
 29 30  1  0
 30 31  1  0
 32 33  1  0
 32 34  2  0
M  END
>  <s_m_entry_id>  (548) 
1334

>  <s_m_entry_name>  (548) 
3C-like_protease_GHDDI_ligprep.953

>  <s_m_Source_Path>  (548) 
/home/jgilaber/drug_learning/drug_learning/datasets/SAR1/GHDDI

>  <s_m_Source_File>  (548) 
3C-like_protease_GHDDI_ligprep.sdf

>  <i_m_Source_File_Index>  (548) 
953

>  <s_m_subgroup_title>  (548) 
3C-like_protease_GHDDI_ligprep

>  <s_m_subgroupid>  (548) 
3C-like_protease_GHDDI_ligprep

>  <b_m_subgroup_collapsed>  (548) 
0

$$$$
14121
     RDKit          2D

 26 27  0  0  1  0  0  0  0  0999 V2000
   -5.7776    3.4180    0.0000 C   0  0  0  0  0  0  0  0  0  0  0  0
   -4.2906    3.6149    0.0000 C   0  0  0  0  0  0  0  0  0  0  0  0
   -3.7176    5.0012    0.0000 O   0  0  0  0  0  0  0  0  0  0  0  0
   -3.3765    2.4256    0.0000 O   0  0  0  0  0  0  0  0  0  0  0  0
   -1.8895    2.6225    0.0000 C   0  0  0  0  0  0  0  0  0  0  0  0
   -0.9754    1.4332    0.0000 C   0  0  0  0  0  0  0  0  0  0  0  0
    0.5116    1.6301    0.0000 N   0  0  0  0  0  0  0  0  0  0  0  0
    1.4256    0.4408    0.0000 C   0  0  0  0  0  0  0  0  0  0  0  0
    0.8527   -0.9455    0.0000 O   0  0  0  0  0  0  0  0  0  0  0  0
    2.9126    0.6377    0.0000 C   0  0  0  0  0  0  0  0  0  0  0  0
    3.8267   -0.5516    0.0000 C   0  0  0  0  0  0  0  0  0  0  0  0
    5.3137   -0.3547    0.0000 C   0  0  0  0  0  0  0  0  0  0  0  0
    6.2278   -1.5440    0.0000 C   0  0  0  0  0  0  0  0  0  0  0  0
    7.7148   -1.3471    0.0000 C   0  0  0  0  0  0  0  0  0  0  0  0
    8.2877    0.0392    0.0000 C   0  0  0  0  0  0  0  0  0  0  0  0
    7.3737    1.2285    0.0000 C   0  0  0  0  0  0  0  0  0  0  0  0
    5.8867    1.0316    0.0000 C   0  0  0  0  0  0  0  0  0  0  0  0
   -1.5484    0.0469    0.0000 C   0  0  0  0  0  0  0  0  0  0  0  0
   -0.6344   -1.1424    0.0000 O   0  0  0  0  0  0  0  0  0  0  0  0
   -3.0354   -0.1500    0.0000 N   0  0  0  0  0  0  0  0  0  0  0  0
   -3.6084   -1.5363    0.0000 C   0  0  0  0  0  0  0  0  0  0  0  0
   -5.0954   -1.7332    0.0000 C   0  0  0  0  0  0  0  0  0  0  0  0
   -5.6684   -3.1194    0.0000 C   0  0  0  0  0  0  0  0  0  0  0  0
   -4.7543   -4.3088    0.0000 C   0  0  0  0  0  0  0  0  0  0  0  0
   -3.2673   -4.1118    0.0000 C   0  0  0  0  0  0  0  0  0  0  0  0
   -2.6943   -2.7256    0.0000 C   0  0  0  0  0  0  0  0  0  0  0  0
  1  2  1  0
  2  3  2  0
  2  4  1  0
  4  5  1  0
  5  6  1  0
  6  7  1  0
  6 18  1  0
  7  8  1  0
  8  9  2  0
  8 10  1  0
 10 11  2  0
 11 12  1  0
 12 13  2  0
 12 17  1  0
 13 14  1  0
 14 15  2  0
 15 16  1  0
 16 17  2  0
 18 19  2  0
 18 20  1  0
 20 21  1  0
 21 22  1  0
 21 26  1  0
 22 23  1  0
 23 24  1  0
 24 25  1  0
 25 26  1  0
M  END
>  <s_m_entry_id>  (549) 
1335

>  <s_m_entry_name>  (549) 
3C-like_protease_GHDDI_ligprep.954

>  <s_m_Source_Path>  (549) 
/home/jgilaber/drug_learning/drug_learning/datasets/SAR1/GHDDI

>  <s_m_Source_File>  (549) 
3C-like_protease_GHDDI_ligprep.sdf

>  <i_m_Source_File_Index>  (549) 
954

>  <s_m_subgroup_title>  (549) 
3C-like_protease_GHDDI_ligprep

>  <s_m_subgroupid>  (549) 
3C-like_protease_GHDDI_ligprep

>  <b_m_subgroup_collapsed>  (549) 
0

$$$$
14122
     RDKit          2D

 34 36  0  0  1  0  0  0  0  0999 V2000
   -8.3898   -2.7322    0.0000 Cl  0  0  0  0  0  0  0  0  0  0  0  0
   -7.2905   -1.7116    0.0000 C   0  0  0  0  0  0  0  0  0  0  0  0
   -7.6247   -0.2493    0.0000 C   0  0  0  0  0  0  0  0  0  0  0  0
   -6.5254    0.7713    0.0000 C   0  0  0  0  0  0  0  0  0  0  0  0
   -6.8597    2.2336    0.0000 Cl  0  0  0  0  0  0  0  0  0  0  0  0
   -5.0919    0.3296    0.0000 C   0  0  0  0  0  0  0  0  0  0  0  0
   -3.9927    1.3502    0.0000 C   0  0  0  0  0  0  0  0  0  0  0  0
   -4.3269    2.8125    0.0000 O   0  0  0  0  0  0  0  0  0  0  0  0
   -2.5592    0.9085    0.0000 O   0  0  0  0  0  0  0  0  0  0  0  0
   -1.4599    1.9291    0.0000 C   0  0  0  0  0  0  0  0  0  0  0  0
   -0.0264    1.4874    0.0000 C   0  0  0  0  0  0  0  0  0  0  0  0
    0.3078    0.0251    0.0000 N   0  0  0  0  0  0  0  0  0  0  0  0
    1.7413   -0.4166    0.0000 C   0  0  0  0  0  0  0  0  0  0  0  0
    2.8406    0.6040    0.0000 O   0  0  0  0  0  0  0  0  0  0  0  0
    2.0755   -1.8789    0.0000 C   0  0  0  0  0  0  0  0  0  0  0  0
    3.5090   -2.3206    0.0000 C   0  0  0  0  0  0  0  0  0  0  0  0
    3.8432   -3.7829    0.0000 C   0  0  0  0  0  0  0  0  0  0  0  0
    2.7440   -4.8035    0.0000 C   0  0  0  0  0  0  0  0  0  0  0  0
    3.0782   -6.2658    0.0000 C   0  0  0  0  0  0  0  0  0  0  0  0
    4.5117   -6.7075    0.0000 C   0  0  0  0  0  0  0  0  0  0  0  0
    5.6109   -5.6869    0.0000 C   0  0  0  0  0  0  0  0  0  0  0  0
    5.2767   -4.2246    0.0000 C   0  0  0  0  0  0  0  0  0  0  0  0
    1.0729    2.5080    0.0000 C   0  0  0  0  0  0  0  0  0  0  0  0
    0.7386    3.9703    0.0000 O   0  0  0  0  0  0  0  0  0  0  0  0
    2.5063    2.0663    0.0000 N   0  0  0  0  0  0  0  0  0  0  0  0
    3.6056    3.0869    0.0000 C   0  0  0  0  0  0  0  0  0  0  0  0
    5.0391    2.6452    0.0000 C   0  0  0  0  0  0  0  0  0  0  0  0
    6.1384    3.6658    0.0000 C   0  0  0  0  0  0  0  0  0  0  0  0
    5.8042    5.1280    0.0000 C   0  0  0  0  0  0  0  0  0  0  0  0
    4.3707    5.5697    0.0000 C   0  0  0  0  0  0  0  0  0  0  0  0
    3.2714    4.5492    0.0000 C   0  0  0  0  0  0  0  0  0  0  0  0
   -4.7577   -1.1327    0.0000 C   0  0  0  0  0  0  0  0  0  0  0  0
   -3.3242   -1.5744    0.0000 Cl  0  0  0  0  0  0  0  0  0  0  0  0
   -5.8570   -2.1533    0.0000 C   0  0  0  0  0  0  0  0  0  0  0  0
  1  2  1  0
  2  3  2  0
  2 34  1  0
  3  4  1  0
  4  5  1  0
  4  6  2  0
  6  7  1  0
  6 32  1  0
  7  8  2  0
  7  9  1  0
  9 10  1  0
 10 11  1  0
 11 12  1  0
 11 23  1  0
 12 13  1  0
 13 14  2  0
 13 15  1  0
 15 16  2  0
 16 17  1  0
 17 18  2  0
 17 22  1  0
 18 19  1  0
 19 20  2  0
 20 21  1  0
 21 22  2  0
 23 24  2  0
 23 25  1  0
 25 26  1  0
 26 27  1  0
 26 31  1  0
 27 28  1  0
 28 29  1  0
 29 30  1  0
 30 31  1  0
 32 33  1  0
 32 34  2  0
M  END
>  <s_m_entry_id>  (550) 
1337

>  <s_m_entry_name>  (550) 
3C-like_protease_GHDDI_ligprep.956

>  <s_m_Source_Path>  (550) 
/home/jgilaber/drug_learning/drug_learning/datasets/SAR1/GHDDI

>  <s_m_Source_File>  (550) 
3C-like_protease_GHDDI_ligprep.sdf

>  <i_m_Source_File_Index>  (550) 
956

>  <s_m_subgroup_title>  (550) 
3C-like_protease_GHDDI_ligprep

>  <s_m_subgroupid>  (550) 
3C-like_protease_GHDDI_ligprep

>  <b_m_subgroup_collapsed>  (550) 
0

$$$$
14123
     RDKit          2D

 26 27  0  0  1  0  0  0  0  0999 V2000
   -5.7776    3.4180    0.0000 C   0  0  0  0  0  0  0  0  0  0  0  0
   -4.2906    3.6149    0.0000 C   0  0  0  0  0  0  0  0  0  0  0  0
   -3.7176    5.0012    0.0000 O   0  0  0  0  0  0  0  0  0  0  0  0
   -3.3765    2.4256    0.0000 O   0  0  0  0  0  0  0  0  0  0  0  0
   -1.8895    2.6225    0.0000 C   0  0  0  0  0  0  0  0  0  0  0  0
   -0.9754    1.4332    0.0000 C   0  0  0  0  0  0  0  0  0  0  0  0
    0.5116    1.6301    0.0000 N   0  0  0  0  0  0  0  0  0  0  0  0
    1.4256    0.4408    0.0000 C   0  0  0  0  0  0  0  0  0  0  0  0
    0.8527   -0.9455    0.0000 O   0  0  0  0  0  0  0  0  0  0  0  0
    2.9126    0.6377    0.0000 C   0  0  0  0  0  0  0  0  0  0  0  0
    3.8267   -0.5516    0.0000 C   0  0  0  0  0  0  0  0  0  0  0  0
    5.3137   -0.3547    0.0000 C   0  0  0  0  0  0  0  0  0  0  0  0
    6.2278   -1.5440    0.0000 C   0  0  0  0  0  0  0  0  0  0  0  0
    7.7148   -1.3471    0.0000 C   0  0  0  0  0  0  0  0  0  0  0  0
    8.2877    0.0392    0.0000 C   0  0  0  0  0  0  0  0  0  0  0  0
    7.3737    1.2285    0.0000 C   0  0  0  0  0  0  0  0  0  0  0  0
    5.8867    1.0316    0.0000 C   0  0  0  0  0  0  0  0  0  0  0  0
   -1.5484    0.0469    0.0000 C   0  0  0  0  0  0  0  0  0  0  0  0
   -0.6344   -1.1424    0.0000 O   0  0  0  0  0  0  0  0  0  0  0  0
   -3.0354   -0.1500    0.0000 N   0  0  0  0  0  0  0  0  0  0  0  0
   -3.6084   -1.5363    0.0000 C   0  0  0  0  0  0  0  0  0  0  0  0
   -5.0954   -1.7332    0.0000 C   0  0  0  0  0  0  0  0  0  0  0  0
   -5.6684   -3.1194    0.0000 C   0  0  0  0  0  0  0  0  0  0  0  0
   -4.7543   -4.3088    0.0000 C   0  0  0  0  0  0  0  0  0  0  0  0
   -3.2673   -4.1118    0.0000 C   0  0  0  0  0  0  0  0  0  0  0  0
   -2.6943   -2.7256    0.0000 C   0  0  0  0  0  0  0  0  0  0  0  0
  1  2  1  0
  2  3  2  0
  2  4  1  0
  4  5  1  0
  5  6  1  0
  6  7  1  0
  6 18  1  0
  7  8  1  0
  8  9  2  0
  8 10  1  0
 10 11  2  0
 11 12  1  0
 12 13  2  0
 12 17  1  0
 13 14  1  0
 14 15  2  0
 15 16  1  0
 16 17  2  0
 18 19  2  0
 18 20  1  0
 20 21  1  0
 21 22  1  0
 21 26  1  0
 22 23  1  0
 23 24  1  0
 24 25  1  0
 25 26  1  0
M  END
>  <s_m_entry_id>  (551) 
1339

>  <s_m_entry_name>  (551) 
3C-like_protease_GHDDI_ligprep.958

>  <s_m_Source_Path>  (551) 
/home/jgilaber/drug_learning/drug_learning/datasets/SAR1/GHDDI

>  <s_m_Source_File>  (551) 
3C-like_protease_GHDDI_ligprep.sdf

>  <i_m_Source_File_Index>  (551) 
958

>  <s_m_subgroup_title>  (551) 
3C-like_protease_GHDDI_ligprep

>  <s_m_subgroupid>  (551) 
3C-like_protease_GHDDI_ligprep

>  <b_m_subgroup_collapsed>  (551) 
0

$$$$
14124
     RDKit          2D

 31 33  0  0  1  0  0  0  0  0999 V2000
   -2.2016   -0.6823    0.0000 O   0  0  0  0  0  0  0  0  0  0  0  0
   -1.1713    0.4079    0.0000 C   0  0  0  0  0  0  0  0  0  0  0  0
    0.2880    0.0607    0.0000 N   0  0  0  0  0  0  0  0  0  0  0  0
    0.7170   -1.3766    0.0000 C   0  0  0  0  0  0  0  0  0  0  0  0
    2.1762   -1.7238    0.0000 C   0  0  0  0  0  0  0  0  0  0  0  0
    3.2065   -0.6336    0.0000 O   0  0  0  0  0  0  0  0  0  0  0  0
    4.6658   -0.9808    0.0000 C   0  0  0  0  0  0  0  0  0  0  0  0
    5.0948   -2.4182    0.0000 O   0  0  0  0  0  0  0  0  0  0  0  0
    5.6961    0.1094    0.0000 C   0  0  0  0  0  0  0  0  0  0  0  0
    7.1554   -0.2378    0.0000 C   0  0  0  0  0  0  0  0  0  0  0  0
    8.1857    0.8524    0.0000 C   0  0  0  0  0  0  0  0  0  0  0  0
    7.7567    2.2897    0.0000 C   0  0  0  0  0  0  0  0  0  0  0  0
    6.2974    2.6369    0.0000 C   0  0  0  0  0  0  0  0  0  0  0  0
    5.2671    1.5467    0.0000 N   0  0  0  0  0  0  0  0  0  0  0  0
   -0.3133   -2.4668    0.0000 C   0  0  0  0  0  0  0  0  0  0  0  0
    0.1156   -3.9042    0.0000 O   0  0  0  0  0  0  0  0  0  0  0  0
   -1.7726   -2.1197    0.0000 N   0  0  0  0  0  0  0  0  0  0  0  0
   -2.8029   -3.2098    0.0000 C   0  0  0  0  0  0  0  0  0  0  0  0
   -4.2622   -2.8627    0.0000 C   0  0  0  0  0  0  0  0  0  0  0  0
   -5.2925   -3.9528    0.0000 C   0  0  0  0  0  0  0  0  0  0  0  0
   -4.8635   -5.3902    0.0000 C   0  0  0  0  0  0  0  0  0  0  0  0
   -3.4042   -5.7374    0.0000 C   0  0  0  0  0  0  0  0  0  0  0  0
   -2.3739   -4.6472    0.0000 C   0  0  0  0  0  0  0  0  0  0  0  0
   -1.6002    1.8452    0.0000 C   0  0  0  0  0  0  0  0  0  0  0  0
   -3.0595    2.1924    0.0000 C   0  0  0  0  0  0  0  0  0  0  0  0
   -3.4885    3.6298    0.0000 C   0  0  0  0  0  0  0  0  0  0  0  0
   -2.4582    4.7199    0.0000 C   0  0  0  0  0  0  0  0  0  0  0  0
   -2.8872    6.1573    0.0000 C   0  0  0  0  0  0  0  0  0  0  0  0
   -4.3464    6.5045    0.0000 C   0  0  0  0  0  0  0  0  0  0  0  0
   -5.3767    5.4143    0.0000 C   0  0  0  0  0  0  0  0  0  0  0  0
   -4.9478    3.9769    0.0000 C   0  0  0  0  0  0  0  0  0  0  0  0
  1  2  2  0
  2  3  1  0
  2 24  1  0
  3  4  1  0
  4  5  1  0
  4 15  1  0
  5  6  1  0
  6  7  1  0
  7  8  2  0
  7  9  1  0
  9 10  2  0
  9 14  1  0
 10 11  1  0
 11 12  2  0
 12 13  1  0
 13 14  2  0
 15 16  2  0
 15 17  1  0
 17 18  1  0
 18 19  1  0
 18 23  1  0
 19 20  1  0
 20 21  1  0
 21 22  1  0
 22 23  1  0
 24 25  2  0
 25 26  1  0
 26 27  2  0
 26 31  1  0
 27 28  1  0
 28 29  2  0
 29 30  1  0
 30 31  2  0
M  END
>  <s_m_entry_id>  (552) 
1340

>  <s_m_entry_name>  (552) 
3C-like_protease_GHDDI_ligprep.959

>  <s_m_Source_Path>  (552) 
/home/jgilaber/drug_learning/drug_learning/datasets/SAR1/GHDDI

>  <s_m_Source_File>  (552) 
3C-like_protease_GHDDI_ligprep.sdf

>  <i_m_Source_File_Index>  (552) 
959

>  <s_m_subgroup_title>  (552) 
3C-like_protease_GHDDI_ligprep

>  <s_m_subgroupid>  (552) 
3C-like_protease_GHDDI_ligprep

>  <b_m_subgroup_collapsed>  (552) 
0

$$$$
14125
     RDKit          2D

 31 33  0  0  1  0  0  0  0  0999 V2000
   -2.2016   -0.6823    0.0000 O   0  0  0  0  0  0  0  0  0  0  0  0
   -1.1713    0.4079    0.0000 C   0  0  0  0  0  0  0  0  0  0  0  0
    0.2880    0.0607    0.0000 N   0  0  0  0  0  0  0  0  0  0  0  0
    0.7170   -1.3766    0.0000 C   0  0  0  0  0  0  0  0  0  0  0  0
    2.1762   -1.7238    0.0000 C   0  0  0  0  0  0  0  0  0  0  0  0
    3.2065   -0.6336    0.0000 O   0  0  0  0  0  0  0  0  0  0  0  0
    4.6658   -0.9808    0.0000 C   0  0  0  0  0  0  0  0  0  0  0  0
    5.0948   -2.4182    0.0000 O   0  0  0  0  0  0  0  0  0  0  0  0
    5.6961    0.1094    0.0000 C   0  0  0  0  0  0  0  0  0  0  0  0
    7.1554   -0.2378    0.0000 C   0  0  0  0  0  0  0  0  0  0  0  0
    8.1857    0.8524    0.0000 C   0  0  0  0  0  0  0  0  0  0  0  0
    7.7567    2.2897    0.0000 C   0  0  0  0  0  0  0  0  0  0  0  0
    6.2974    2.6369    0.0000 C   0  0  0  0  0  0  0  0  0  0  0  0
    5.2671    1.5467    0.0000 N   0  0  0  0  0  0  0  0  0  0  0  0
   -0.3133   -2.4668    0.0000 C   0  0  0  0  0  0  0  0  0  0  0  0
    0.1156   -3.9042    0.0000 O   0  0  0  0  0  0  0  0  0  0  0  0
   -1.7726   -2.1197    0.0000 N   0  0  0  0  0  0  0  0  0  0  0  0
   -2.8029   -3.2098    0.0000 C   0  0  0  0  0  0  0  0  0  0  0  0
   -4.2622   -2.8627    0.0000 C   0  0  0  0  0  0  0  0  0  0  0  0
   -5.2925   -3.9528    0.0000 C   0  0  0  0  0  0  0  0  0  0  0  0
   -4.8635   -5.3902    0.0000 C   0  0  0  0  0  0  0  0  0  0  0  0
   -3.4042   -5.7374    0.0000 C   0  0  0  0  0  0  0  0  0  0  0  0
   -2.3739   -4.6472    0.0000 C   0  0  0  0  0  0  0  0  0  0  0  0
   -1.6002    1.8452    0.0000 C   0  0  0  0  0  0  0  0  0  0  0  0
   -3.0595    2.1924    0.0000 C   0  0  0  0  0  0  0  0  0  0  0  0
   -3.4885    3.6298    0.0000 C   0  0  0  0  0  0  0  0  0  0  0  0
   -2.4582    4.7199    0.0000 C   0  0  0  0  0  0  0  0  0  0  0  0
   -2.8872    6.1573    0.0000 C   0  0  0  0  0  0  0  0  0  0  0  0
   -4.3464    6.5045    0.0000 C   0  0  0  0  0  0  0  0  0  0  0  0
   -5.3767    5.4143    0.0000 C   0  0  0  0  0  0  0  0  0  0  0  0
   -4.9478    3.9769    0.0000 C   0  0  0  0  0  0  0  0  0  0  0  0
  1  2  2  0
  2  3  1  0
  2 24  1  0
  3  4  1  0
  4  5  1  0
  4 15  1  0
  5  6  1  0
  6  7  1  0
  7  8  2  0
  7  9  1  0
  9 10  2  0
  9 14  1  0
 10 11  1  0
 11 12  2  0
 12 13  1  0
 13 14  2  0
 15 16  2  0
 15 17  1  0
 17 18  1  0
 18 19  1  0
 18 23  1  0
 19 20  1  0
 20 21  1  0
 21 22  1  0
 22 23  1  0
 24 25  2  0
 25 26  1  0
 26 27  2  0
 26 31  1  0
 27 28  1  0
 28 29  2  0
 29 30  1  0
 30 31  2  0
M  END
>  <s_m_entry_id>  (553) 
1341

>  <s_m_entry_name>  (553) 
3C-like_protease_GHDDI_ligprep.960

>  <s_m_Source_Path>  (553) 
/home/jgilaber/drug_learning/drug_learning/datasets/SAR1/GHDDI

>  <s_m_Source_File>  (553) 
3C-like_protease_GHDDI_ligprep.sdf

>  <i_m_Source_File_Index>  (553) 
960

>  <s_m_subgroup_title>  (553) 
3C-like_protease_GHDDI_ligprep

>  <s_m_subgroupid>  (553) 
3C-like_protease_GHDDI_ligprep

>  <b_m_subgroup_collapsed>  (553) 
0

$$$$
14128
     RDKit          2D

 28 29  0  0  1  0  0  0  0  0999 V2000
   -8.1304    3.0159    0.0000 C   0  0  0  0  0  0  0  0  0  0  0  0
   -6.6837    3.4123    0.0000 C   0  0  0  0  0  0  0  0  0  0  0  0
   -5.6172    2.3576    0.0000 C   0  0  0  0  0  0  0  0  0  0  0  0
   -4.1705    2.7539    0.0000 C   0  0  0  0  0  0  0  0  0  0  0  0
   -3.7904    4.2049    0.0000 O   0  0  0  0  0  0  0  0  0  0  0  0
   -3.1039    1.6992    0.0000 O   0  0  0  0  0  0  0  0  0  0  0  0
   -1.6572    2.0955    0.0000 C   0  0  0  0  0  0  0  0  0  0  0  0
   -0.5906    1.0408    0.0000 C   0  0  0  0  0  0  0  0  0  0  0  0
    0.8561    1.4371    0.0000 N   0  0  0  0  0  0  0  0  0  0  0  0
    1.9226    0.3824    0.0000 C   0  0  0  0  0  0  0  0  0  0  0  0
    1.5425   -1.0686    0.0000 O   0  0  0  0  0  0  0  0  0  0  0  0
    3.3693    0.7787    0.0000 C   0  0  0  0  0  0  0  0  0  0  0  0
    4.4359   -0.2760    0.0000 C   0  0  0  0  0  0  0  0  0  0  0  0
    5.8826    0.1203    0.0000 C   0  0  0  0  0  0  0  0  0  0  0  0
    6.9492   -0.9344    0.0000 C   0  0  0  0  0  0  0  0  0  0  0  0
    8.3959   -0.5380    0.0000 C   0  0  0  0  0  0  0  0  0  0  0  0
    8.7760    0.9130    0.0000 C   0  0  0  0  0  0  0  0  0  0  0  0
    7.7094    1.9677    0.0000 C   0  0  0  0  0  0  0  0  0  0  0  0
    6.2627    1.5714    0.0000 C   0  0  0  0  0  0  0  0  0  0  0  0
   -0.9707   -0.4103    0.0000 C   0  0  0  0  0  0  0  0  0  0  0  0
    0.0958   -1.4650    0.0000 O   0  0  0  0  0  0  0  0  0  0  0  0
   -2.4174   -0.8066    0.0000 N   0  0  0  0  0  0  0  0  0  0  0  0
   -2.7976   -2.2576    0.0000 C   0  0  0  0  0  0  0  0  0  0  0  0
   -4.2443   -2.6539    0.0000 C   0  0  0  0  0  0  0  0  0  0  0  0
   -4.6244   -4.1050    0.0000 C   0  0  0  0  0  0  0  0  0  0  0  0
   -3.5578   -5.1597    0.0000 C   0  0  0  0  0  0  0  0  0  0  0  0
   -2.1111   -4.7634    0.0000 C   0  0  0  0  0  0  0  0  0  0  0  0
   -1.7310   -3.3123    0.0000 C   0  0  0  0  0  0  0  0  0  0  0  0
  1  2  1  0
  2  3  1  0
  3  4  1  0
  4  5  2  0
  4  6  1  0
  6  7  1  0
  7  8  1  0
  8  9  1  0
  8 20  1  0
  9 10  1  0
 10 11  2  0
 10 12  1  0
 12 13  2  0
 13 14  1  0
 14 15  2  0
 14 19  1  0
 15 16  1  0
 16 17  2  0
 17 18  1  0
 18 19  2  0
 20 21  2  0
 20 22  1  0
 22 23  1  0
 23 24  1  0
 23 28  1  0
 24 25  1  0
 25 26  1  0
 26 27  1  0
 27 28  1  0
M  END
>  <s_m_entry_id>  (554) 
1345

>  <s_m_entry_name>  (554) 
3C-like_protease_GHDDI_ligprep.964

>  <s_m_Source_Path>  (554) 
/home/jgilaber/drug_learning/drug_learning/datasets/SAR1/GHDDI

>  <s_m_Source_File>  (554) 
3C-like_protease_GHDDI_ligprep.sdf

>  <i_m_Source_File_Index>  (554) 
964

>  <s_m_subgroup_title>  (554) 
3C-like_protease_GHDDI_ligprep

>  <s_m_subgroupid>  (554) 
3C-like_protease_GHDDI_ligprep

>  <b_m_subgroup_collapsed>  (554) 
0

$$$$
14129
     RDKit          2D

 32 34  0  0  1  0  0  0  0  0999 V2000
    4.8432    1.3104    0.0000 O   0  0  0  0  0  0  0  0  0  0  0  0
    4.1843   -0.0371    0.0000 C   0  0  0  0  0  0  0  0  0  0  0  0
    5.0219   -1.2815    0.0000 C   0  0  0  0  0  0  0  0  0  0  0  0
    6.5183   -1.1784    0.0000 C   0  0  0  0  0  0  0  0  0  0  0  0
    7.3559   -2.4228    0.0000 C   0  0  0  0  0  0  0  0  0  0  0  0
    8.8523   -2.3197    0.0000 C   0  0  0  0  0  0  0  0  0  0  0  0
    9.5112   -0.9721    0.0000 C   0  0  0  0  0  0  0  0  0  0  0  0
    8.6737    0.2723    0.0000 C   0  0  0  0  0  0  0  0  0  0  0  0
    7.1772    0.1691    0.0000 C   0  0  0  0  0  0  0  0  0  0  0  0
    2.6879   -0.1403    0.0000 O   0  0  0  0  0  0  0  0  0  0  0  0
    1.8503    1.1041    0.0000 C   0  0  0  0  0  0  0  0  0  0  0  0
    0.3539    1.0010    0.0000 C   0  0  0  0  0  0  0  0  0  0  0  0
   -0.3050   -0.3466    0.0000 N   0  0  0  0  0  0  0  0  0  0  0  0
   -1.8015   -0.4497    0.0000 C   0  0  0  0  0  0  0  0  0  0  0  0
   -2.6390    0.7947    0.0000 O   0  0  0  0  0  0  0  0  0  0  0  0
   -2.4604   -1.7972    0.0000 C   0  0  0  0  0  0  0  0  0  0  0  0
   -3.9568   -1.9004    0.0000 C   0  0  0  0  0  0  0  0  0  0  0  0
   -4.6157   -3.2479    0.0000 C   0  0  0  0  0  0  0  0  0  0  0  0
   -6.1122   -3.3510    0.0000 C   0  0  0  0  0  0  0  0  0  0  0  0
   -6.7711   -4.6986    0.0000 C   0  0  0  0  0  0  0  0  0  0  0  0
   -5.9335   -5.9429    0.0000 C   0  0  0  0  0  0  0  0  0  0  0  0
   -4.4371   -5.8398    0.0000 C   0  0  0  0  0  0  0  0  0  0  0  0
   -3.7782   -4.4923    0.0000 C   0  0  0  0  0  0  0  0  0  0  0  0
   -0.4837    2.2454    0.0000 C   0  0  0  0  0  0  0  0  0  0  0  0
    0.1753    3.5929    0.0000 O   0  0  0  0  0  0  0  0  0  0  0  0
   -1.9801    2.1422    0.0000 N   0  0  0  0  0  0  0  0  0  0  0  0
   -2.8176    3.3866    0.0000 C   0  0  0  0  0  0  0  0  0  0  0  0
   -2.1587    4.7342    0.0000 C   0  0  0  0  0  0  0  0  0  0  0  0
   -2.9963    5.9786    0.0000 C   0  0  0  0  0  0  0  0  0  0  0  0
   -4.4927    5.8754    0.0000 C   0  0  0  0  0  0  0  0  0  0  0  0
   -5.1516    4.5279    0.0000 C   0  0  0  0  0  0  0  0  0  0  0  0
   -4.3141    3.2835    0.0000 C   0  0  0  0  0  0  0  0  0  0  0  0
  1  2  2  0
  2  3  1  0
  2 10  1  0
  3  4  1  0
  4  5  2  0
  4  9  1  0
  5  6  1  0
  6  7  2  0
  7  8  1  0
  8  9  2  0
 10 11  1  0
 11 12  1  0
 12 13  1  0
 12 24  1  0
 13 14  1  0
 14 15  2  0
 14 16  1  0
 16 17  2  0
 17 18  1  0
 18 19  2  0
 18 23  1  0
 19 20  1  0
 20 21  2  0
 21 22  1  0
 22 23  2  0
 24 25  2  0
 24 26  1  0
 26 27  1  0
 27 28  1  0
 27 32  1  0
 28 29  1  0
 29 30  1  0
 30 31  1  0
 31 32  1  0
M  END
>  <s_m_entry_id>  (555) 
1347

>  <s_m_entry_name>  (555) 
3C-like_protease_GHDDI_ligprep.966

>  <s_m_Source_Path>  (555) 
/home/jgilaber/drug_learning/drug_learning/datasets/SAR1/GHDDI

>  <s_m_Source_File>  (555) 
3C-like_protease_GHDDI_ligprep.sdf

>  <i_m_Source_File_Index>  (555) 
966

>  <s_m_subgroup_title>  (555) 
3C-like_protease_GHDDI_ligprep

>  <s_m_subgroupid>  (555) 
3C-like_protease_GHDDI_ligprep

>  <b_m_subgroup_collapsed>  (555) 
0

$$$$
14130
     RDKit          2D

 32 34  0  0  1  0  0  0  0  0999 V2000
    4.8432    1.3104    0.0000 O   0  0  0  0  0  0  0  0  0  0  0  0
    4.1843   -0.0371    0.0000 C   0  0  0  0  0  0  0  0  0  0  0  0
    5.0219   -1.2815    0.0000 C   0  0  0  0  0  0  0  0  0  0  0  0
    6.5183   -1.1784    0.0000 C   0  0  0  0  0  0  0  0  0  0  0  0
    7.3559   -2.4228    0.0000 C   0  0  0  0  0  0  0  0  0  0  0  0
    8.8523   -2.3197    0.0000 C   0  0  0  0  0  0  0  0  0  0  0  0
    9.5112   -0.9721    0.0000 C   0  0  0  0  0  0  0  0  0  0  0  0
    8.6737    0.2723    0.0000 C   0  0  0  0  0  0  0  0  0  0  0  0
    7.1772    0.1691    0.0000 C   0  0  0  0  0  0  0  0  0  0  0  0
    2.6879   -0.1403    0.0000 O   0  0  0  0  0  0  0  0  0  0  0  0
    1.8503    1.1041    0.0000 C   0  0  0  0  0  0  0  0  0  0  0  0
    0.3539    1.0010    0.0000 C   0  0  0  0  0  0  0  0  0  0  0  0
   -0.3050   -0.3466    0.0000 N   0  0  0  0  0  0  0  0  0  0  0  0
   -1.8015   -0.4497    0.0000 C   0  0  0  0  0  0  0  0  0  0  0  0
   -2.6390    0.7947    0.0000 O   0  0  0  0  0  0  0  0  0  0  0  0
   -2.4604   -1.7972    0.0000 C   0  0  0  0  0  0  0  0  0  0  0  0
   -3.9568   -1.9004    0.0000 C   0  0  0  0  0  0  0  0  0  0  0  0
   -4.6157   -3.2479    0.0000 C   0  0  0  0  0  0  0  0  0  0  0  0
   -6.1122   -3.3510    0.0000 C   0  0  0  0  0  0  0  0  0  0  0  0
   -6.7711   -4.6986    0.0000 C   0  0  0  0  0  0  0  0  0  0  0  0
   -5.9335   -5.9429    0.0000 C   0  0  0  0  0  0  0  0  0  0  0  0
   -4.4371   -5.8398    0.0000 C   0  0  0  0  0  0  0  0  0  0  0  0
   -3.7782   -4.4923    0.0000 C   0  0  0  0  0  0  0  0  0  0  0  0
   -0.4837    2.2454    0.0000 C   0  0  0  0  0  0  0  0  0  0  0  0
    0.1753    3.5929    0.0000 O   0  0  0  0  0  0  0  0  0  0  0  0
   -1.9801    2.1422    0.0000 N   0  0  0  0  0  0  0  0  0  0  0  0
   -2.8176    3.3866    0.0000 C   0  0  0  0  0  0  0  0  0  0  0  0
   -2.1587    4.7342    0.0000 C   0  0  0  0  0  0  0  0  0  0  0  0
   -2.9963    5.9786    0.0000 C   0  0  0  0  0  0  0  0  0  0  0  0
   -4.4927    5.8754    0.0000 C   0  0  0  0  0  0  0  0  0  0  0  0
   -5.1516    4.5279    0.0000 C   0  0  0  0  0  0  0  0  0  0  0  0
   -4.3141    3.2835    0.0000 C   0  0  0  0  0  0  0  0  0  0  0  0
  1  2  2  0
  2  3  1  0
  2 10  1  0
  3  4  1  0
  4  5  2  0
  4  9  1  0
  5  6  1  0
  6  7  2  0
  7  8  1  0
  8  9  2  0
 10 11  1  0
 11 12  1  0
 12 13  1  0
 12 24  1  0
 13 14  1  0
 14 15  2  0
 14 16  1  0
 16 17  2  0
 17 18  1  0
 18 19  2  0
 18 23  1  0
 19 20  1  0
 20 21  2  0
 21 22  1  0
 22 23  2  0
 24 25  2  0
 24 26  1  0
 26 27  1  0
 27 28  1  0
 27 32  1  0
 28 29  1  0
 29 30  1  0
 30 31  1  0
 31 32  1  0
M  END
>  <s_m_entry_id>  (556) 
1349

>  <s_m_entry_name>  (556) 
3C-like_protease_GHDDI_ligprep.968

>  <s_m_Source_Path>  (556) 
/home/jgilaber/drug_learning/drug_learning/datasets/SAR1/GHDDI

>  <s_m_Source_File>  (556) 
3C-like_protease_GHDDI_ligprep.sdf

>  <i_m_Source_File_Index>  (556) 
968

>  <s_m_subgroup_title>  (556) 
3C-like_protease_GHDDI_ligprep

>  <s_m_subgroupid>  (556) 
3C-like_protease_GHDDI_ligprep

>  <b_m_subgroup_collapsed>  (556) 
0

$$$$
14131
     RDKit          2D

 28 29  0  0  1  0  0  0  0  0999 V2000
   -8.1304    3.0159    0.0000 C   0  0  0  0  0  0  0  0  0  0  0  0
   -6.6837    3.4123    0.0000 C   0  0  0  0  0  0  0  0  0  0  0  0
   -5.6172    2.3576    0.0000 C   0  0  0  0  0  0  0  0  0  0  0  0
   -4.1705    2.7539    0.0000 C   0  0  0  0  0  0  0  0  0  0  0  0
   -3.7904    4.2049    0.0000 O   0  0  0  0  0  0  0  0  0  0  0  0
   -3.1039    1.6992    0.0000 O   0  0  0  0  0  0  0  0  0  0  0  0
   -1.6572    2.0955    0.0000 C   0  0  0  0  0  0  0  0  0  0  0  0
   -0.5906    1.0408    0.0000 C   0  0  0  0  0  0  0  0  0  0  0  0
    0.8561    1.4371    0.0000 N   0  0  0  0  0  0  0  0  0  0  0  0
    1.9226    0.3824    0.0000 C   0  0  0  0  0  0  0  0  0  0  0  0
    1.5425   -1.0686    0.0000 O   0  0  0  0  0  0  0  0  0  0  0  0
    3.3693    0.7787    0.0000 C   0  0  0  0  0  0  0  0  0  0  0  0
    4.4359   -0.2760    0.0000 C   0  0  0  0  0  0  0  0  0  0  0  0
    5.8826    0.1203    0.0000 C   0  0  0  0  0  0  0  0  0  0  0  0
    6.9492   -0.9344    0.0000 C   0  0  0  0  0  0  0  0  0  0  0  0
    8.3959   -0.5380    0.0000 C   0  0  0  0  0  0  0  0  0  0  0  0
    8.7760    0.9130    0.0000 C   0  0  0  0  0  0  0  0  0  0  0  0
    7.7094    1.9677    0.0000 C   0  0  0  0  0  0  0  0  0  0  0  0
    6.2627    1.5714    0.0000 C   0  0  0  0  0  0  0  0  0  0  0  0
   -0.9707   -0.4103    0.0000 C   0  0  0  0  0  0  0  0  0  0  0  0
    0.0958   -1.4650    0.0000 O   0  0  0  0  0  0  0  0  0  0  0  0
   -2.4174   -0.8066    0.0000 N   0  0  0  0  0  0  0  0  0  0  0  0
   -2.7976   -2.2576    0.0000 C   0  0  0  0  0  0  0  0  0  0  0  0
   -4.2443   -2.6539    0.0000 C   0  0  0  0  0  0  0  0  0  0  0  0
   -4.6244   -4.1050    0.0000 C   0  0  0  0  0  0  0  0  0  0  0  0
   -3.5578   -5.1597    0.0000 C   0  0  0  0  0  0  0  0  0  0  0  0
   -2.1111   -4.7634    0.0000 C   0  0  0  0  0  0  0  0  0  0  0  0
   -1.7310   -3.3123    0.0000 C   0  0  0  0  0  0  0  0  0  0  0  0
  1  2  1  0
  2  3  1  0
  3  4  1  0
  4  5  2  0
  4  6  1  0
  6  7  1  0
  7  8  1  0
  8  9  1  0
  8 20  1  0
  9 10  1  0
 10 11  2  0
 10 12  1  0
 12 13  2  0
 13 14  1  0
 14 15  2  0
 14 19  1  0
 15 16  1  0
 16 17  2  0
 17 18  1  0
 18 19  2  0
 20 21  2  0
 20 22  1  0
 22 23  1  0
 23 24  1  0
 23 28  1  0
 24 25  1  0
 25 26  1  0
 26 27  1  0
 27 28  1  0
M  END
>  <s_m_entry_id>  (557) 
1350

>  <s_m_entry_name>  (557) 
3C-like_protease_GHDDI_ligprep.969

>  <s_m_Source_Path>  (557) 
/home/jgilaber/drug_learning/drug_learning/datasets/SAR1/GHDDI

>  <s_m_Source_File>  (557) 
3C-like_protease_GHDDI_ligprep.sdf

>  <i_m_Source_File_Index>  (557) 
969

>  <s_m_subgroup_title>  (557) 
3C-like_protease_GHDDI_ligprep

>  <s_m_subgroupid>  (557) 
3C-like_protease_GHDDI_ligprep

>  <b_m_subgroup_collapsed>  (557) 
0

$$$$
14134
     RDKit          2D

 23 24  0  0  1  0  0  0  0  0999 V2000
   -3.4466    3.5531    0.0000 O   0  0  0  0  0  0  0  0  0  0  0  0
   -1.9473    3.5069    0.0000 C   0  0  0  0  0  0  0  0  0  0  0  0
   -1.2376    2.1854    0.0000 C   0  0  0  0  0  0  0  0  0  0  0  0
    0.2617    2.1392    0.0000 N   0  0  0  0  0  0  0  0  0  0  0  0
    0.9713    0.8177    0.0000 C   0  0  0  0  0  0  0  0  0  0  0  0
    0.1816   -0.4577    0.0000 O   0  0  0  0  0  0  0  0  0  0  0  0
    2.4706    0.7715    0.0000 C   0  0  0  0  0  0  0  0  0  0  0  0
    3.1802   -0.5500    0.0000 C   0  0  0  0  0  0  0  0  0  0  0  0
    4.6795   -0.5962    0.0000 C   0  0  0  0  0  0  0  0  0  0  0  0
    5.3891   -1.9178    0.0000 C   0  0  0  0  0  0  0  0  0  0  0  0
    6.8884   -1.9640    0.0000 C   0  0  0  0  0  0  0  0  0  0  0  0
    7.6781   -0.6886    0.0000 C   0  0  0  0  0  0  0  0  0  0  0  0
    6.9684    0.6329    0.0000 C   0  0  0  0  0  0  0  0  0  0  0  0
    5.4692    0.6791    0.0000 C   0  0  0  0  0  0  0  0  0  0  0  0
   -2.0273    0.9101    0.0000 C   0  0  0  0  0  0  0  0  0  0  0  0
   -1.3176   -0.4115    0.0000 O   0  0  0  0  0  0  0  0  0  0  0  0
   -3.5266    0.9563    0.0000 N   0  0  0  0  0  0  0  0  0  0  0  0
   -4.3162   -0.3191    0.0000 C   0  0  0  0  0  0  0  0  0  0  0  0
   -5.8155   -0.2729    0.0000 C   0  0  0  0  0  0  0  0  0  0  0  0
   -6.6052   -1.5482    0.0000 C   0  0  0  0  0  0  0  0  0  0  0  0
   -5.8955   -2.8697    0.0000 C   0  0  0  0  0  0  0  0  0  0  0  0
   -4.3962   -2.9159    0.0000 C   0  0  0  0  0  0  0  0  0  0  0  0
   -3.6066   -1.6406    0.0000 C   0  0  0  0  0  0  0  0  0  0  0  0
  1  2  1  0
  2  3  1  0
  3  4  1  0
  3 15  1  0
  4  5  1  0
  5  6  2  0
  5  7  1  0
  7  8  2  0
  8  9  1  0
  9 10  2  0
  9 14  1  0
 10 11  1  0
 11 12  2  0
 12 13  1  0
 13 14  2  0
 15 16  2  0
 15 17  1  0
 17 18  1  0
 18 19  1  0
 18 23  1  0
 19 20  1  0
 20 21  1  0
 21 22  1  0
 22 23  1  0
M  END
>  <s_m_entry_id>  (558) 
1354

>  <s_m_entry_name>  (558) 
3C-like_protease_GHDDI_ligprep.973

>  <s_m_Source_Path>  (558) 
/home/jgilaber/drug_learning/drug_learning/datasets/SAR1/GHDDI

>  <s_m_Source_File>  (558) 
3C-like_protease_GHDDI_ligprep.sdf

>  <i_m_Source_File_Index>  (558) 
973

>  <s_m_subgroup_title>  (558) 
3C-like_protease_GHDDI_ligprep

>  <s_m_subgroupid>  (558) 
3C-like_protease_GHDDI_ligprep

>  <b_m_subgroup_collapsed>  (558) 
0

$$$$
14135
     RDKit          2D

 23 24  0  0  1  0  0  0  0  0999 V2000
   -3.4466    3.5531    0.0000 O   0  0  0  0  0  0  0  0  0  0  0  0
   -1.9473    3.5069    0.0000 C   0  0  0  0  0  0  0  0  0  0  0  0
   -1.2376    2.1854    0.0000 C   0  0  0  0  0  0  0  0  0  0  0  0
    0.2617    2.1392    0.0000 N   0  0  0  0  0  0  0  0  0  0  0  0
    0.9713    0.8177    0.0000 C   0  0  0  0  0  0  0  0  0  0  0  0
    0.1816   -0.4577    0.0000 O   0  0  0  0  0  0  0  0  0  0  0  0
    2.4706    0.7715    0.0000 C   0  0  0  0  0  0  0  0  0  0  0  0
    3.1802   -0.5500    0.0000 C   0  0  0  0  0  0  0  0  0  0  0  0
    4.6795   -0.5962    0.0000 C   0  0  0  0  0  0  0  0  0  0  0  0
    5.3891   -1.9178    0.0000 C   0  0  0  0  0  0  0  0  0  0  0  0
    6.8884   -1.9640    0.0000 C   0  0  0  0  0  0  0  0  0  0  0  0
    7.6781   -0.6886    0.0000 C   0  0  0  0  0  0  0  0  0  0  0  0
    6.9684    0.6329    0.0000 C   0  0  0  0  0  0  0  0  0  0  0  0
    5.4692    0.6791    0.0000 C   0  0  0  0  0  0  0  0  0  0  0  0
   -2.0273    0.9101    0.0000 C   0  0  0  0  0  0  0  0  0  0  0  0
   -1.3176   -0.4115    0.0000 O   0  0  0  0  0  0  0  0  0  0  0  0
   -3.5266    0.9563    0.0000 N   0  0  0  0  0  0  0  0  0  0  0  0
   -4.3162   -0.3191    0.0000 C   0  0  0  0  0  0  0  0  0  0  0  0
   -5.8155   -0.2729    0.0000 C   0  0  0  0  0  0  0  0  0  0  0  0
   -6.6052   -1.5482    0.0000 C   0  0  0  0  0  0  0  0  0  0  0  0
   -5.8955   -2.8697    0.0000 C   0  0  0  0  0  0  0  0  0  0  0  0
   -4.3962   -2.9159    0.0000 C   0  0  0  0  0  0  0  0  0  0  0  0
   -3.6066   -1.6406    0.0000 C   0  0  0  0  0  0  0  0  0  0  0  0
  1  2  1  0
  2  3  1  0
  3  4  1  0
  3 15  1  0
  4  5  1  0
  5  6  2  0
  5  7  1  0
  7  8  2  0
  8  9  1  0
  9 10  2  0
  9 14  1  0
 10 11  1  0
 11 12  2  0
 12 13  1  0
 13 14  2  0
 15 16  2  0
 15 17  1  0
 17 18  1  0
 18 19  1  0
 18 23  1  0
 19 20  1  0
 20 21  1  0
 21 22  1  0
 22 23  1  0
M  END
>  <s_m_entry_id>  (559) 
1356

>  <s_m_entry_name>  (559) 
3C-like_protease_GHDDI_ligprep.975

>  <s_m_Source_Path>  (559) 
/home/jgilaber/drug_learning/drug_learning/datasets/SAR1/GHDDI

>  <s_m_Source_File>  (559) 
3C-like_protease_GHDDI_ligprep.sdf

>  <i_m_Source_File_Index>  (559) 
975

>  <s_m_subgroup_title>  (559) 
3C-like_protease_GHDDI_ligprep

>  <s_m_subgroupid>  (559) 
3C-like_protease_GHDDI_ligprep

>  <b_m_subgroup_collapsed>  (559) 
0

$$$$
14136
     RDKit          2D

 36 38  0  0  1  0  0  0  0  0999 V2000
   -5.8695   -3.0838    0.0000 C   0  0  0  0  0  0  0  0  0  0  0  0
   -5.8077   -1.5850    0.0000 C   0  0  0  0  0  0  0  0  0  0  0  0
   -7.0747   -0.7821    0.0000 O   0  0  0  0  0  0  0  0  0  0  0  0
   -4.4788   -0.8892    0.0000 N   0  0  0  0  0  0  0  0  0  0  0  0
   -4.4170    0.6095    0.0000 C   0  0  0  0  0  0  0  0  0  0  0  0
   -5.6840    1.4124    0.0000 C   0  0  0  0  0  0  0  0  0  0  0  0
   -5.6222    2.9111    0.0000 C   0  0  0  0  0  0  0  0  0  0  0  0
   -4.3734    3.7420    0.0000 C   0  0  0  0  0  0  0  0  0  0  0  0
   -4.7777    5.1865    0.0000 N   0  0  0  0  0  0  0  0  0  0  0  0
   -6.2764    5.2483    0.0000 C   0  0  0  0  0  0  0  0  0  0  0  0
   -6.7984    3.8421    0.0000 N   0  0  0  0  0  0  0  0  0  0  0  0
   -3.0882    1.3053    0.0000 C   0  0  0  0  0  0  0  0  0  0  0  0
   -3.0263    2.8041    0.0000 O   0  0  0  0  0  0  0  0  0  0  0  0
   -1.8211    0.5024    0.0000 O   0  0  0  0  0  0  0  0  0  0  0  0
   -0.4923    1.1983    0.0000 C   0  0  0  0  0  0  0  0  0  0  0  0
    0.7747    0.3954    0.0000 C   0  0  0  0  0  0  0  0  0  0  0  0
    2.1036    1.0912    0.0000 N   0  0  0  0  0  0  0  0  0  0  0  0
    3.3706    0.2883    0.0000 C   0  0  0  0  0  0  0  0  0  0  0  0
    3.3088   -1.2104    0.0000 O   0  0  0  0  0  0  0  0  0  0  0  0
    4.6994    0.9841    0.0000 C   0  0  0  0  0  0  0  0  0  0  0  0
    5.9665    0.1812    0.0000 C   0  0  0  0  0  0  0  0  0  0  0  0
    7.2953    0.8770    0.0000 C   0  0  0  0  0  0  0  0  0  0  0  0
    8.5623    0.0741    0.0000 C   0  0  0  0  0  0  0  0  0  0  0  0
    9.8912    0.7700    0.0000 C   0  0  0  0  0  0  0  0  0  0  0  0
    9.9530    2.2687    0.0000 C   0  0  0  0  0  0  0  0  0  0  0  0
    8.6860    3.0716    0.0000 C   0  0  0  0  0  0  0  0  0  0  0  0
    7.3571    2.3758    0.0000 C   0  0  0  0  0  0  0  0  0  0  0  0
    0.7129   -1.1034    0.0000 C   0  0  0  0  0  0  0  0  0  0  0  0
    1.9799   -1.9063    0.0000 O   0  0  0  0  0  0  0  0  0  0  0  0
   -0.6159   -1.7992    0.0000 N   0  0  0  0  0  0  0  0  0  0  0  0
   -0.6778   -3.2979    0.0000 C   0  0  0  0  0  0  0  0  0  0  0  0
   -2.0066   -3.9937    0.0000 C   0  0  0  0  0  0  0  0  0  0  0  0
   -2.0684   -5.4925    0.0000 C   0  0  0  0  0  0  0  0  0  0  0  0
   -0.8014   -6.2954    0.0000 C   0  0  0  0  0  0  0  0  0  0  0  0
    0.5274   -5.5995    0.0000 C   0  0  0  0  0  0  0  0  0  0  0  0
    0.5893   -4.1008    0.0000 C   0  0  0  0  0  0  0  0  0  0  0  0
  1  2  1  0
  2  3  2  0
  2  4  1  0
  4  5  1  0
  5  6  1  0
  5 12  1  0
  6  7  1  0
  7  8  2  0
  7 11  1  0
  8  9  1  0
  9 10  2  0
 10 11  1  0
 12 13  2  0
 12 14  1  0
 14 15  1  0
 15 16  1  0
 16 17  1  0
 16 28  1  0
 17 18  1  0
 18 19  2  0
 18 20  1  0
 20 21  2  0
 21 22  1  0
 22 23  2  0
 22 27  1  0
 23 24  1  0
 24 25  2  0
 25 26  1  0
 26 27  2  0
 28 29  2  0
 28 30  1  0
 30 31  1  0
 31 32  1  0
 31 36  1  0
 32 33  1  0
 33 34  1  0
 34 35  1  0
 35 36  1  0
M  END
>  <s_m_entry_id>  (560) 
1359

>  <s_m_entry_name>  (560) 
3C-like_protease_GHDDI_ligprep.978

>  <s_m_Source_Path>  (560) 
/home/jgilaber/drug_learning/drug_learning/datasets/SAR1/GHDDI

>  <s_m_Source_File>  (560) 
3C-like_protease_GHDDI_ligprep.sdf

>  <i_m_Source_File_Index>  (560) 
978

>  <s_m_subgroup_title>  (560) 
3C-like_protease_GHDDI_ligprep

>  <s_m_subgroupid>  (560) 
3C-like_protease_GHDDI_ligprep

>  <b_m_subgroup_collapsed>  (560) 
0

$$$$
14137
     RDKit          2D

 36 38  0  0  1  0  0  0  0  0999 V2000
   -5.8695   -3.0838    0.0000 C   0  0  0  0  0  0  0  0  0  0  0  0
   -5.8077   -1.5850    0.0000 C   0  0  0  0  0  0  0  0  0  0  0  0
   -7.0747   -0.7821    0.0000 O   0  0  0  0  0  0  0  0  0  0  0  0
   -4.4788   -0.8892    0.0000 N   0  0  0  0  0  0  0  0  0  0  0  0
   -4.4170    0.6095    0.0000 C   0  0  0  0  0  0  0  0  0  0  0  0
   -5.6840    1.4124    0.0000 C   0  0  0  0  0  0  0  0  0  0  0  0
   -5.6222    2.9111    0.0000 C   0  0  0  0  0  0  0  0  0  0  0  0
   -4.3734    3.7420    0.0000 C   0  0  0  0  0  0  0  0  0  0  0  0
   -4.7777    5.1865    0.0000 N   0  0  0  0  0  0  0  0  0  0  0  0
   -6.2764    5.2483    0.0000 C   0  0  0  0  0  0  0  0  0  0  0  0
   -6.7984    3.8421    0.0000 N   0  0  0  0  0  0  0  0  0  0  0  0
   -3.0882    1.3053    0.0000 C   0  0  0  0  0  0  0  0  0  0  0  0
   -3.0263    2.8041    0.0000 O   0  0  0  0  0  0  0  0  0  0  0  0
   -1.8211    0.5024    0.0000 O   0  0  0  0  0  0  0  0  0  0  0  0
   -0.4923    1.1983    0.0000 C   0  0  0  0  0  0  0  0  0  0  0  0
    0.7747    0.3954    0.0000 C   0  0  0  0  0  0  0  0  0  0  0  0
    2.1036    1.0912    0.0000 N   0  0  0  0  0  0  0  0  0  0  0  0
    3.3706    0.2883    0.0000 C   0  0  0  0  0  0  0  0  0  0  0  0
    3.3088   -1.2104    0.0000 O   0  0  0  0  0  0  0  0  0  0  0  0
    4.6994    0.9841    0.0000 C   0  0  0  0  0  0  0  0  0  0  0  0
    5.9665    0.1812    0.0000 C   0  0  0  0  0  0  0  0  0  0  0  0
    7.2953    0.8770    0.0000 C   0  0  0  0  0  0  0  0  0  0  0  0
    8.5623    0.0741    0.0000 C   0  0  0  0  0  0  0  0  0  0  0  0
    9.8912    0.7700    0.0000 C   0  0  0  0  0  0  0  0  0  0  0  0
    9.9530    2.2687    0.0000 C   0  0  0  0  0  0  0  0  0  0  0  0
    8.6860    3.0716    0.0000 C   0  0  0  0  0  0  0  0  0  0  0  0
    7.3571    2.3758    0.0000 C   0  0  0  0  0  0  0  0  0  0  0  0
    0.7129   -1.1034    0.0000 C   0  0  0  0  0  0  0  0  0  0  0  0
    1.9799   -1.9063    0.0000 O   0  0  0  0  0  0  0  0  0  0  0  0
   -0.6159   -1.7992    0.0000 N   0  0  0  0  0  0  0  0  0  0  0  0
   -0.6778   -3.2979    0.0000 C   0  0  0  0  0  0  0  0  0  0  0  0
   -2.0066   -3.9937    0.0000 C   0  0  0  0  0  0  0  0  0  0  0  0
   -2.0684   -5.4925    0.0000 C   0  0  0  0  0  0  0  0  0  0  0  0
   -0.8014   -6.2954    0.0000 C   0  0  0  0  0  0  0  0  0  0  0  0
    0.5274   -5.5995    0.0000 C   0  0  0  0  0  0  0  0  0  0  0  0
    0.5893   -4.1008    0.0000 C   0  0  0  0  0  0  0  0  0  0  0  0
  1  2  1  0
  2  3  2  0
  2  4  1  0
  4  5  1  0
  5  6  1  0
  5 12  1  0
  6  7  1  0
  7  8  2  0
  7 11  1  0
  8  9  1  0
  9 10  2  0
 10 11  1  0
 12 13  2  0
 12 14  1  0
 14 15  1  0
 15 16  1  0
 16 17  1  0
 16 28  1  0
 17 18  1  0
 18 19  2  0
 18 20  1  0
 20 21  2  0
 21 22  1  0
 22 23  2  0
 22 27  1  0
 23 24  1  0
 24 25  2  0
 25 26  1  0
 26 27  2  0
 28 29  2  0
 28 30  1  0
 30 31  1  0
 31 32  1  0
 31 36  1  0
 32 33  1  0
 33 34  1  0
 34 35  1  0
 35 36  1  0
M  END
>  <s_m_entry_id>  (561) 
1364

>  <s_m_entry_name>  (561) 
3C-like_protease_GHDDI_ligprep.983

>  <s_m_Source_Path>  (561) 
/home/jgilaber/drug_learning/drug_learning/datasets/SAR1/GHDDI

>  <s_m_Source_File>  (561) 
3C-like_protease_GHDDI_ligprep.sdf

>  <i_m_Source_File_Index>  (561) 
983

>  <s_m_subgroup_title>  (561) 
3C-like_protease_GHDDI_ligprep

>  <s_m_subgroupid>  (561) 
3C-like_protease_GHDDI_ligprep

>  <b_m_subgroup_collapsed>  (561) 
0

$$$$
14138
     RDKit          2D

 40 40  0  0  1  0  0  0  0  0999 V2000
   -0.9758    2.9251    0.0000 C   0  0  0  0  0  0  0  0  0  0  0  0
    0.4382    2.4245    0.0000 C   0  0  0  0  0  0  0  0  0  0  0  0
    1.5787    3.3987    0.0000 C   0  0  0  0  0  0  0  0  0  0  0  0
    0.7117    0.9496    0.0000 C   0  0  0  0  0  0  0  0  0  0  0  0
    2.1257    0.4490    0.0000 C   0  0  0  0  0  0  0  0  0  0  0  0
    2.3991   -1.0258    0.0000 N   0  0  0  0  0  0  0  0  0  0  0  0
    1.2586   -2.0001    0.0000 C   0  0  0  0  0  0  0  0  0  0  0  0
    1.5321   -3.4750    0.0000 O   0  0  0  0  0  0  0  0  0  0  0  0
   -0.1554   -1.4995    0.0000 C   0  0  0  0  0  0  0  0  0  0  0  0
   -0.4289   -0.0246    0.0000 N   0  0  0  0  0  0  0  0  0  0  0  0
   -1.8429    0.4759    0.0000 C   0  0  0  0  0  0  0  0  0  0  0  0
   -2.1163    1.9508    0.0000 O   0  0  0  0  0  0  0  0  0  0  0  0
   -2.9834   -0.4983    0.0000 C   0  0  0  0  0  0  0  0  0  0  0  0
   -2.9166   -1.5898    0.0000 C   0  0  0  0  0  0  0  0  0  0  0  0
   -4.3974    0.0023    0.0000 N   0  0  0  0  0  0  0  0  0  0  0  0
   -5.5379   -0.9720    0.0000 C   0  0  0  0  0  0  0  0  0  0  0  0
   -5.2645   -2.4469    0.0000 O   0  0  0  0  0  0  0  0  0  0  0  0
   -6.9519   -0.4714    0.0000 C   0  0  0  0  0  0  0  0  0  0  0  0
   -8.0925   -1.4457    0.0000 C   0  0  0  0  0  0  0  0  0  0  0  0
   -9.5065   -0.9451    0.0000 O   0  0  0  0  0  0  0  0  0  0  0  0
   -7.2254    1.0035    0.0000 N   0  0  0  0  0  0  0  0  0  0  0  0
   -8.6394    1.5041    0.0000 C   0  0  0  0  0  0  0  0  0  0  0  0
   -9.7799    0.5298    0.0000 O   0  0  0  0  0  0  0  0  0  0  0  0
   -8.9129    2.9789    0.0000 C   0  0  0  0  0  0  0  0  0  0  0  0
   -1.2959   -2.4738    0.0000 C   0  0  0  0  0  0  0  0  0  0  0  0
   -1.0224   -3.9486    0.0000 C   0  0  0  0  0  0  0  0  0  0  0  0
   -2.3635   -2.2372    0.0000 C   0  0  0  0  0  0  0  0  0  0  0  0
    3.2662    1.4233    0.0000 C   0  0  0  0  0  0  0  0  0  0  0  0
    2.9927    2.8981    0.0000 O   0  0  0  0  0  0  0  0  0  0  0  0
    4.6802    0.9227    0.0000 N   0  0  0  0  0  0  0  0  0  0  0  0
    5.8207    1.8970    0.0000 C   0  0  0  0  0  0  0  0  0  0  0  0
    7.2347    1.3964    0.0000 C   0  0  0  0  0  0  0  0  0  0  0  0
    7.5082   -0.0785    0.0000 C   0  0  0  0  0  0  0  0  0  0  0  0
    6.3677   -1.0528    0.0000 C   0  0  0  0  0  0  0  0  0  0  0  0
    6.6412   -2.5276    0.0000 C   0  0  0  0  0  0  0  0  0  0  0  0
    8.0552   -3.0282    0.0000 C   0  0  0  0  0  0  0  0  0  0  0  0
    9.1957   -2.0539    0.0000 C   0  0  0  0  0  0  0  0  0  0  0  0
    8.9222   -0.5791    0.0000 C   0  0  0  0  0  0  0  0  0  0  0  0
    5.5473    3.3718    0.0000 C   0  0  0  0  0  0  0  0  0  0  0  0
    4.1333    3.8724    0.0000 O   0  0  0  0  0  0  0  0  0  0  0  0
  1  2  1  0
  2  3  1  0
  2  4  1  0
  4  5  1  0
  5  6  1  0
  5 28  1  0
  6  7  1  0
  7  8  2  0
  7  9  1  0
  9 10  1  0
  9 25  1  0
 10 11  1  0
 11 12  2  0
 11 13  1  0
 13 14  1  0
 13 15  1  0
 15 16  1  0
 16 17  2  0
 16 18  1  0
 18 19  1  0
 18 21  1  0
 19 20  1  0
 21 22  1  0
 22 23  2  0
 22 24  1  0
 25 26  1  0
 25 27  1  0
 28 29  2  0
 28 30  1  0
 30 31  1  0
 31 32  1  0
 31 39  1  0
 32 33  1  0
 33 34  2  0
 33 38  1  0
 34 35  1  0
 35 36  2  0
 36 37  1  0
 37 38  2  0
 39 40  2  0
M  END
>  <s_m_entry_id>  (562) 
1366

>  <s_m_entry_name>  (562) 
3C-like_protease_GHDDI_ligprep.985

>  <s_m_Source_Path>  (562) 
/home/jgilaber/drug_learning/drug_learning/datasets/SAR1/GHDDI

>  <s_m_Source_File>  (562) 
3C-like_protease_GHDDI_ligprep.sdf

>  <i_m_Source_File_Index>  (562) 
985

>  <s_m_subgroup_title>  (562) 
3C-like_protease_GHDDI_ligprep

>  <s_m_subgroupid>  (562) 
3C-like_protease_GHDDI_ligprep

>  <b_m_subgroup_collapsed>  (562) 
0

$$$$
14139
     RDKit          2D

 37 36  0  0  1  0  0  0  0  0999 V2000
    6.2840   -3.0426    0.0000 C   0  0  0  0  0  0  0  0  0  0  0  0
    5.5606   -1.7286    0.0000 C   0  0  0  0  0  0  0  0  0  0  0  0
    4.0609   -1.6980    0.0000 C   0  0  0  0  0  0  0  0  0  0  0  0
    6.3368   -0.4451    0.0000 C   0  0  0  0  0  0  0  0  0  0  0  0
    5.6134    0.8690    0.0000 C   0  0  0  0  0  0  0  0  0  0  0  0
    4.1138    0.8995    0.0000 N   0  0  0  0  0  0  0  0  0  0  0  0
    3.3904    2.2135    0.0000 C   0  0  0  0  0  0  0  0  0  0  0  0
    4.1666    3.4970    0.0000 O   0  0  0  0  0  0  0  0  0  0  0  0
    1.8907    2.2441    0.0000 C   0  0  0  0  0  0  0  0  0  0  0  0
    1.1673    3.5581    0.0000 C   0  0  0  0  0  0  0  0  0  0  0  0
   -0.3324    3.5886    0.0000 C   0  0  0  0  0  0  0  0  0  0  0  0
   -1.0558    4.9027    0.0000 C   0  0  0  0  0  0  0  0  0  0  0  0
   -1.1087    2.3051    0.0000 C   0  0  0  0  0  0  0  0  0  0  0  0
    1.1144    0.9606    0.0000 N   0  0  0  0  0  0  0  0  0  0  0  0
    1.8378   -0.3535    0.0000 C   0  0  0  0  0  0  0  0  0  0  0  0
    3.3375   -0.3840    0.0000 O   0  0  0  0  0  0  0  0  0  0  0  0
    1.0615   -1.6370    0.0000 C   0  0  0  0  0  0  0  0  0  0  0  0
   -0.4382   -1.6064    0.0000 N   0  0  0  0  0  0  0  0  0  0  0  0
   -1.2145   -2.8899    0.0000 C   0  0  0  0  0  0  0  0  0  0  0  0
   -0.4911   -4.2040    0.0000 O   0  0  0  0  0  0  0  0  0  0  0  0
   -2.7142   -2.8594    0.0000 C   0  0  0  0  0  0  0  0  0  0  0  0
   -3.4905   -4.1429    0.0000 C   0  0  0  0  0  0  0  0  0  0  0  0
   -3.4376   -1.5454    0.0000 N   0  0  0  0  0  0  0  0  0  0  0  0
   -4.9373   -1.5148    0.0000 C   0  0  0  0  0  0  0  0  0  0  0  0
   -5.7136   -2.7983    0.0000 O   0  0  0  0  0  0  0  0  0  0  0  0
   -5.6607   -0.2008    0.0000 C   0  0  0  0  0  0  0  0  0  0  0  0
   -7.1604   -0.1703    0.0000 C   0  0  0  0  0  0  0  0  0  0  0  0
   -7.8838    1.1438    0.0000 O   0  0  0  0  0  0  0  0  0  0  0  0
   -4.8844    1.0827    0.0000 N   0  0  0  0  0  0  0  0  0  0  0  0
   -5.6078    2.3967    0.0000 C   0  0  0  0  0  0  0  0  0  0  0  0
   -7.1075    2.4273    0.0000 O   0  0  0  0  0  0  0  0  0  0  0  0
   -4.8315    3.6803    0.0000 C   0  0  0  0  0  0  0  0  0  0  0  0
    1.7849   -2.9510    0.0000 C   0  0  0  0  0  0  0  0  0  0  0  0
    1.0086   -4.2345    0.0000 C   0  0  0  0  0  0  0  0  0  0  0  0
    3.2846   -2.9815    0.0000 C   0  0  0  0  0  0  0  0  0  0  0  0
    6.3897    2.1525    0.0000 C   0  0  0  0  0  0  0  0  0  0  0  0
    5.6663    3.4665    0.0000 O   0  0  0  0  0  0  0  0  0  0  0  0
  1  2  1  0
  2  3  1  0
  2  4  1  0
  4  5  1  0
  5  6  1  0
  5 36  1  0
  6  7  1  0
  7  8  2  0
  7  9  1  0
  9 10  1  0
  9 14  1  0
 10 11  1  0
 11 12  1  0
 11 13  1  0
 14 15  1  0
 15 16  2  0
 15 17  1  0
 17 18  1  0
 17 33  1  0
 18 19  1  0
 19 20  2  0
 19 21  1  0
 21 22  1  0
 21 23  1  0
 23 24  1  0
 24 25  2  0
 24 26  1  0
 26 27  1  0
 26 29  1  0
 27 28  1  0
 29 30  1  0
 30 31  2  0
 30 32  1  0
 33 34  1  0
 33 35  1  0
 36 37  2  0
M  END
>  <s_m_entry_id>  (563) 
1367

>  <s_m_entry_name>  (563) 
3C-like_protease_GHDDI_ligprep.986

>  <s_m_Source_Path>  (563) 
/home/jgilaber/drug_learning/drug_learning/datasets/SAR1/GHDDI

>  <s_m_Source_File>  (563) 
3C-like_protease_GHDDI_ligprep.sdf

>  <i_m_Source_File_Index>  (563) 
986

>  <s_m_subgroup_title>  (563) 
3C-like_protease_GHDDI_ligprep

>  <s_m_subgroupid>  (563) 
3C-like_protease_GHDDI_ligprep

>  <b_m_subgroup_collapsed>  (563) 
0

$$$$
14140
     RDKit          2D

 37 36  0  0  1  0  0  0  0  0999 V2000
   -1.0720    4.8706    0.0000 C   0  0  0  0  0  0  0  0  0  0  0  0
   -0.3888    3.5352    0.0000 C   0  0  0  0  0  0  0  0  0  0  0  0
   -1.2037    2.2758    0.0000 C   0  0  0  0  0  0  0  0  0  0  0  0
    1.1093    3.4591    0.0000 C   0  0  0  0  0  0  0  0  0  0  0  0
    1.7924    2.1237    0.0000 C   0  0  0  0  0  0  0  0  0  0  0  0
    0.9775    0.8644    0.0000 N   0  0  0  0  0  0  0  0  0  0  0  0
    1.6607   -0.4710    0.0000 C   0  0  0  0  0  0  0  0  0  0  0  0
    3.1588   -0.5471    0.0000 O   0  0  0  0  0  0  0  0  0  0  0  0
    0.8458   -1.7304    0.0000 C   0  0  0  0  0  0  0  0  0  0  0  0
   -0.6523   -1.6543    0.0000 N   0  0  0  0  0  0  0  0  0  0  0  0
   -1.4672   -2.9136    0.0000 C   0  0  0  0  0  0  0  0  0  0  0  0
   -0.7840   -4.2490    0.0000 O   0  0  0  0  0  0  0  0  0  0  0  0
   -2.9653   -2.8376    0.0000 C   0  0  0  0  0  0  0  0  0  0  0  0
   -3.7802   -4.0969    0.0000 C   0  0  0  0  0  0  0  0  0  0  0  0
   -3.6484   -1.5022    0.0000 N   0  0  0  0  0  0  0  0  0  0  0  0
   -5.1465   -1.4261    0.0000 C   0  0  0  0  0  0  0  0  0  0  0  0
   -5.9614   -2.6854    0.0000 O   0  0  0  0  0  0  0  0  0  0  0  0
   -5.8297   -0.0907    0.0000 C   0  0  0  0  0  0  0  0  0  0  0  0
   -7.3277   -0.0146    0.0000 C   0  0  0  0  0  0  0  0  0  0  0  0
   -8.0109    1.3208    0.0000 O   0  0  0  0  0  0  0  0  0  0  0  0
   -5.0148    1.1686    0.0000 N   0  0  0  0  0  0  0  0  0  0  0  0
   -5.6979    2.5040    0.0000 C   0  0  0  0  0  0  0  0  0  0  0  0
   -7.1960    2.5801    0.0000 O   0  0  0  0  0  0  0  0  0  0  0  0
   -4.8830    3.7634    0.0000 C   0  0  0  0  0  0  0  0  0  0  0  0
    1.5289   -3.0658    0.0000 C   0  0  0  0  0  0  0  0  0  0  0  0
    0.7140   -4.3251    0.0000 C   0  0  0  0  0  0  0  0  0  0  0  0
    3.0270   -3.1418    0.0000 C   0  0  0  0  0  0  0  0  0  0  0  0
    3.2905    2.0476    0.0000 C   0  0  0  0  0  0  0  0  0  0  0  0
    4.1054    3.3070    0.0000 O   0  0  0  0  0  0  0  0  0  0  0  0
    3.9737    0.7122    0.0000 N   0  0  0  0  0  0  0  0  0  0  0  0
    5.4717    0.6362    0.0000 C   0  0  0  0  0  0  0  0  0  0  0  0
    6.2866    1.8955    0.0000 C   0  0  0  0  0  0  0  0  0  0  0  0
    7.7847    1.8194    0.0000 O   0  0  0  0  0  0  0  0  0  0  0  0
    6.1549   -0.6992    0.0000 C   0  0  0  0  0  0  0  0  0  0  0  0
    7.4903   -0.0161    0.0000 C   0  0  0  0  0  0  0  0  0  0  0  0
    4.8195   -1.3824    0.0000 C   0  0  0  0  0  0  0  0  0  0  0  0
    6.8381   -2.0346    0.0000 C   0  0  0  0  0  0  0  0  0  0  0  0
  1  2  1  0
  2  3  1  0
  2  4  1  0
  4  5  1  0
  5  6  1  0
  5 28  1  0
  6  7  1  0
  7  8  2  0
  7  9  1  0
  9 10  1  0
  9 25  1  0
 10 11  1  0
 11 12  2  0
 11 13  1  0
 13 14  1  0
 13 15  1  0
 15 16  1  0
 16 17  2  0
 16 18  1  0
 18 19  1  0
 18 21  1  0
 19 20  1  0
 21 22  1  0
 22 23  2  0
 22 24  1  0
 25 26  1  0
 25 27  1  0
 28 29  2  0
 28 30  1  0
 30 31  1  0
 31 32  1  0
 31 34  1  0
 32 33  2  0
 34 35  1  0
 34 36  1  0
 34 37  1  0
M  END
>  <s_m_entry_id>  (564) 
1368

>  <s_m_entry_name>  (564) 
3C-like_protease_GHDDI_ligprep.987

>  <s_m_Source_Path>  (564) 
/home/jgilaber/drug_learning/drug_learning/datasets/SAR1/GHDDI

>  <s_m_Source_File>  (564) 
3C-like_protease_GHDDI_ligprep.sdf

>  <i_m_Source_File_Index>  (564) 
987

>  <s_m_subgroup_title>  (564) 
3C-like_protease_GHDDI_ligprep

>  <s_m_subgroupid>  (564) 
3C-like_protease_GHDDI_ligprep

>  <b_m_subgroup_collapsed>  (564) 
0

$$$$
